McPAT (version 1.1 of March, 2014) is computing the target processor...
 

McPAT (version 1.1 of March, 2014) results  (current print level is 5)
*****************************************************************************************
  Technology 32 nm
  Interconnect metal projection= aggressive interconnect technology projection
  Core clock Rate(MHz) 2000

*****************************************************************************************
Processor: 
  Area = 46.3495 mm^2
  Peak Power = 91.2763 W
  Total Leakage = 25.3971 W
  Peak Dynamic = 65.8792 W
  Subthreshold Leakage = 24.4309 W
  Gate Leakage = 0.966284 W
  Runtime Dynamic = 0.731519 W

  Total Cores: 2 cores 
  Device Type= ITRS high performance device type
    Area = 37.5369 mm^2
    Peak Dynamic = 65.3417 W
    Subthreshold Leakage = 18.9177 W
    Gate Leakage = 0.820234 W
    Runtime Dynamic = 0.700711 W

  Total L2s: 
  Device Type= ITRS high performance device type
    Area = 8.27164 mm^2
    Peak Dynamic = 0.112651 W
    Subthreshold Leakage = 5.291 W
    Gate Leakage = 0.138421 W
    Runtime Dynamic = 0.000772159 W

  Total First Level Directory: 
  Device Type= ITRS high performance device type
    Area = 0.230936 mm^2
    Peak Dynamic = 0.0100361 W
    Subthreshold Leakage = 0.160847 W
    Gate Leakage = 0.00488567 W
    Runtime Dynamic = 0 W

  Total NoCs (Network/Bus): 
  Device Type= ITRS high performance device type
    Area = 0.0389605 mm^2
    Peak Dynamic = 0.114831 W
    Subthreshold Leakage = 0.0224928 W
    Gate Leakage = 0.000909432 W
    Runtime Dynamic = 0 W

  Total MCs: 1 Memory Controllers 
  Device Type= ITRS high performance device type
    Area = 0.271054 mm^2
    Peak Dynamic = 0.299952 W
    Subthreshold Leakage = 0.0388043 W
    Gate Leakage = 0.00183315 W
    Runtime Dynamic = 0.0300364 W

*****************************************************************************************
Core:
      Area = 18.7685 mm^2
      Peak Dynamic = 32.6708 W
      Subthreshold Leakage = 9.45886 W
      Gate Leakage = 0.410117 W
      Runtime Dynamic = 0.356905 W

      Instruction Fetch Unit:
        Area = 0.373716 mm^2
        Peak Dynamic = 0.852367 W
        Subthreshold Leakage = 0.180795 W
        Gate Leakage = 0.00860996 W
        Runtime Dynamic = 0.0011295 W

          Instruction Cache:
            Area = 0.031153 mm^2
            Peak Dynamic = 0.0582816 W
            Subthreshold Leakage = 0.019862 W
            Gate Leakage = 0.000772322 W
            Runtime Dynamic = 1.32803e-11 W

          Branch Target Buffer:
            Area = 0.218343 mm^2
            Peak Dynamic = 0.0267203 W
            Subthreshold Leakage = 0.0792175 W
            Gate Leakage = 0.00258463 W
            Runtime Dynamic = 1.98493e-11 W

          Branch Predictor:
            Area = 0.0695659 mm^2
            Peak Dynamic = 0.0221683 W
            Subthreshold Leakage = 0.0333239 W
            Gate Leakage = 0.000813825 W
            Runtime Dynamic = 5.89143e-05 W

              Global Predictor:
                Area = 0.0246062 mm^2
                Peak Dynamic = 0.00680391 W
                Subthreshold Leakage = 0.0119463 W
                Gate Leakage = 0.000281893 W
                Runtime Dynamic = 1.96149e-05 W

              Local Predictor:
              L1_Local Predictor:
                Area = 0.0116952 mm^2
                Peak Dynamic = 0.00411002 W
                Subthreshold Leakage = 0.00621882 W
                Gate Leakage = 0.000155927 W
                Runtime Dynamic = 1.22578e-05 W

              L2_Local Predictor:
                Area = 0.00590338 mm^2
                Peak Dynamic = 0.0020446 W
                Subthreshold Leakage = 0.0027348 W
                Gate Leakage = 7.97825e-05 W
                Runtime Dynamic = 6.09735e-06 W

              Chooser:
                Area = 0.0246062 mm^2
                Peak Dynamic = 0.00680391 W
                Subthreshold Leakage = 0.0119463 W
                Gate Leakage = 0.000281893 W
                Runtime Dynamic = 1.96149e-05 W

              RAS:
                Area = 0.00275494 mm^2
                Peak Dynamic = 0.00240583 W
                Subthreshold Leakage = 0.000477777 W
                Gate Leakage = 1.43306e-05 W
                Runtime Dynamic = 1.3293e-06 W

          Instruction Buffer:
            Area = 0.012681 mm^2
            Peak Dynamic = 0.333876 W
            Subthreshold Leakage = 0.00241792 W
            Gate Leakage = 7.7627e-05 W
            Runtime Dynamic = 0.000551064 W

          Instruction Decoder:
            Area = 0.0121409 mm^2
            Peak Dynamic = 0.314767 W
            Subthreshold Leakage = 0.00447554 W
            Gate Leakage = 0.00013906 W
            Runtime Dynamic = 0.000519524 W

      Renaming Unit:
        Area = 4.07069 mm^2
        Peak Dynamic = 20.6475 W
        Subthreshold Leakage = 1.04744 W
        Gate Leakage = 0.0625803 W
        Runtime Dynamic = 0.0122839 W

          Int Front End RAT:
            Area = 2.39226 mm^2
            Peak Dynamic = 13.7118 W
            Subthreshold Leakage = 0.602615 W
            Gate Leakage = 0.0343763 W
            Runtime Dynamic = 0.0121918 W

          FP Front End RAT:
            Area = 1.41952 mm^2
            Peak Dynamic = 6.70218 W
            Subthreshold Leakage = 0.394292 W
            Gate Leakage = 0.0237137 W
            Runtime Dynamic = 2.76344e-05 W

          Free List:
            Area = 0.116512 mm^2
            Peak Dynamic = 0.0548029 W
            Subthreshold Leakage = 0.00408189 W
            Gate Leakage = 0.00011355 W
            Runtime Dynamic = 6.42465e-05 W

          Int Retire RAT: 
            Area = 0.0189764 mm^2
            Peak Dynamic = 0.0211238 W
            Subthreshold Leakage = 0.000839329 W
            Gate Leakage = 3.11248e-05 W
            Runtime Dynamic = 0 W

          FP Retire RAT:
            Area = 0.0111561 mm^2
            Peak Dynamic = 0.013167 W
            Subthreshold Leakage = 0.00065932 W
            Gate Leakage = 2.49388e-05 W
            Runtime Dynamic = 0 W

          FP Free List:
            Area = 0.0824369 mm^2
            Peak Dynamic = 0.0478719 W
            Subthreshold Leakage = 0.00345646 W
            Gate Leakage = 9.82089e-05 W
            Runtime Dynamic = 1.92547e-07 W

      Load Store Unit:
        Area = 0.875325 mm^2
        Peak Dynamic = 1.31008 W
        Subthreshold Leakage = 0.307052 W
        Gate Leakage = 0.0148495 W
        Runtime Dynamic = 0.00157399 W

          Data Cache:
            Area = 0.231404 mm^2
            Peak Dynamic = 0.403485 W
            Subthreshold Leakage = 0.101848 W
            Gate Leakage = 0.00404542 W
            Runtime Dynamic = 3.11852e-11 W

          LoadQ:
            Area = 0.268613 mm^2
            Peak Dynamic = 0.40502 W
            Subthreshold Leakage = 0.0818531 W
            Gate Leakage = 0.00329078 W
            Runtime Dynamic = 0.000524664 W

          StoreQ:
            Area = 0.268613 mm^2
            Peak Dynamic = 0.40502 W
            Subthreshold Leakage = 0.0818531 W
            Gate Leakage = 0.00329078 W
            Runtime Dynamic = 0.00104933 W

      Memory Management Unit:
        Area = 0.218493 mm^2
        Peak Dynamic = 0.213214 W
        Subthreshold Leakage = 0.099136 W
        Gate Leakage = 0.00647838 W
        Runtime Dynamic = 3.30952e-06 W

          Itlb:
            Area = 0.0224248 mm^2
            Peak Dynamic = 0.0148392 W
            Subthreshold Leakage = 0.00889002 W
            Gate Leakage = 0.000350037 W
            Runtime Dynamic = 3.30948e-06 W

          Dtlb:
            Area = 0.166236 mm^2
            Peak Dynamic = 0.101821 W
            Subthreshold Leakage = 0.0487475 W
            Gate Leakage = 0.00190585 W
            Runtime Dynamic = 1.35808e-11 W

      Execution Unit:
        Area = 11.0862 mm^2
        Peak Dynamic = 9.64771 W
        Subthreshold Leakage = 5.74786 W
        Gate Leakage = 0.233639 W
        Runtime Dynamic = 0.341915 W

          Register Files:
            Area = 2.26478 mm^2
            Peak Dynamic = 2.66097 W
            Subthreshold Leakage = 0.113345 W
            Gate Leakage = 0.00360427 W
            Runtime Dynamic = 0.00133506 W

              Integer RF:
                Area = 1.13239 mm^2
                Peak Dynamic = 1.52055 W
                Subthreshold Leakage = 0.0566724 W
                Gate Leakage = 0.00180213 W
                Runtime Dynamic = 0.00133303 W

              Floating Point RF:
                Area = 1.13239 mm^2
                Peak Dynamic = 1.14041 W
                Subthreshold Leakage = 0.0566724 W
                Gate Leakage = 0.00180213 W
                Runtime Dynamic = 2.03596e-06 W

          Instruction Scheduler:
            Area = 0.752987 mm^2
            Peak Dynamic = 1.37144 W
            Subthreshold Leakage = 0.103893 W
            Gate Leakage = 0.00387543 W
            Runtime Dynamic = 0.00192755 W

              Instruction Window:
                Area = 0.120064 mm^2
                Peak Dynamic = 0.334445 W
                Subthreshold Leakage = 0.0219608 W
                Gate Leakage = 0.000910492 W
                Runtime Dynamic = 0.00139929 W

              FP Instruction Window:
                Area = 0.233305 mm^2
                Peak Dynamic = 0.469621 W
                Subthreshold Leakage = 0.0563153 W
                Gate Leakage = 0.00227521 W
                Runtime Dynamic = 4.71569e-06 W

              ROB:
                Area = 0.399618 mm^2
                Peak Dynamic = 0.567376 W
                Subthreshold Leakage = 0.0256169 W
                Gate Leakage = 0.000689732 W
                Runtime Dynamic = 0.000523539 W

          Integer ALUs (Count: 8 ):
            Area = 0.439479 mm^2
            Peak Dynamic = 0.926622 W
            Subthreshold Leakage = 0.851296 W
            Gate Leakage = 0.0344197 W
            Runtime Dynamic = 0.0571901 W

          Floating Point Units (FPUs) (Count: 6 ):
            Area = 7.06712 mm^2
            Peak Dynamic = 2.12662 W
            Subthreshold Leakage = 3.42235 W
            Gate Leakage = 0.138373 W
            Runtime Dynamic = 0.166891 W

          Complex ALUs (Mul/Div) (Count: 3 ):
            Area = 0.494414 mm^2
            Peak Dynamic = 0.229349 W
            Subthreshold Leakage = 0.957708 W
            Gate Leakage = 0.0387221 W
            Runtime Dynamic = 0.111254 W

          Results Broadcast Bus:
            Area Overhead = 0.0375694 mm^2
            Peak Dynamic = 2.23617 W
            Subthreshold Leakage = 0.257769 W
            Gate Leakage = 0.0104221 W
            Runtime Dynamic = 0.00331745 W

*****************************************************************************************
Core:
      Area = 18.7685 mm^2
      Peak Dynamic = 32.6708 W
      Subthreshold Leakage = 9.45886 W
      Gate Leakage = 0.410117 W
      Runtime Dynamic = 0.343805 W

      Instruction Fetch Unit:
        Area = 0.373716 mm^2
        Peak Dynamic = 0.852367 W
        Subthreshold Leakage = 0.180795 W
        Gate Leakage = 0.00860996 W
        Runtime Dynamic = 0.000468327 W

          Instruction Cache:
            Area = 0.031153 mm^2
            Peak Dynamic = 0.0582816 W
            Subthreshold Leakage = 0.019862 W
            Gate Leakage = 0.000772322 W
            Runtime Dynamic = 1.32803e-11 W

          Branch Target Buffer:
            Area = 0.218343 mm^2
            Peak Dynamic = 0.0267203 W
            Subthreshold Leakage = 0.0792175 W
            Gate Leakage = 0.00258463 W
            Runtime Dynamic = 1.98493e-11 W

          Branch Predictor:
            Area = 0.0695659 mm^2
            Peak Dynamic = 0.0221683 W
            Subthreshold Leakage = 0.0333239 W
            Gate Leakage = 0.000813825 W
            Runtime Dynamic = 2.6589e-05 W

              Global Predictor:
                Area = 0.0246062 mm^2
                Peak Dynamic = 0.00680391 W
                Subthreshold Leakage = 0.0119463 W
                Gate Leakage = 0.000281893 W
                Runtime Dynamic = 8.89102e-06 W

              Local Predictor:
              L1_Local Predictor:
                Area = 0.0116952 mm^2
                Peak Dynamic = 0.00411002 W
                Subthreshold Leakage = 0.00621882 W
                Gate Leakage = 0.000155927 W
                Runtime Dynamic = 5.56712e-06 W

              L2_Local Predictor:
                Area = 0.00590338 mm^2
                Peak Dynamic = 0.0020446 W
                Subthreshold Leakage = 0.0027348 W
                Gate Leakage = 7.97825e-05 W
                Runtime Dynamic = 2.76922e-06 W

              Chooser:
                Area = 0.0246062 mm^2
                Peak Dynamic = 0.00680391 W
                Subthreshold Leakage = 0.0119463 W
                Gate Leakage = 0.000281893 W
                Runtime Dynamic = 8.89102e-06 W

              RAS:
                Area = 0.00275494 mm^2
                Peak Dynamic = 0.00240583 W
                Subthreshold Leakage = 0.000477777 W
                Gate Leakage = 1.43306e-05 W
                Runtime Dynamic = 4.7059e-07 W

          Instruction Buffer:
            Area = 0.012681 mm^2
            Peak Dynamic = 0.333876 W
            Subthreshold Leakage = 0.00241792 W
            Gate Leakage = 7.7627e-05 W
            Runtime Dynamic = 0.000227376 W

          Instruction Decoder:
            Area = 0.0121409 mm^2
            Peak Dynamic = 0.314767 W
            Subthreshold Leakage = 0.00447554 W
            Gate Leakage = 0.00013906 W
            Runtime Dynamic = 0.000214362 W

      Renaming Unit:
        Area = 4.07069 mm^2
        Peak Dynamic = 20.6475 W
        Subthreshold Leakage = 1.04744 W
        Gate Leakage = 0.0625803 W
        Runtime Dynamic = 0.00504552 W

          Int Front End RAT:
            Area = 2.39226 mm^2
            Peak Dynamic = 13.7118 W
            Subthreshold Leakage = 0.602615 W
            Gate Leakage = 0.0343763 W
            Runtime Dynamic = 0.00498148 W

          FP Front End RAT:
            Area = 1.41952 mm^2
            Peak Dynamic = 6.70218 W
            Subthreshold Leakage = 0.394292 W
            Gate Leakage = 0.0237137 W
            Runtime Dynamic = 3.75334e-05 W

          Free List:
            Area = 0.116512 mm^2
            Peak Dynamic = 0.0548029 W
            Subthreshold Leakage = 0.00408189 W
            Gate Leakage = 0.00011355 W
            Runtime Dynamic = 2.62507e-05 W

          Int Retire RAT: 
            Area = 0.0189764 mm^2
            Peak Dynamic = 0.0211238 W
            Subthreshold Leakage = 0.000839329 W
            Gate Leakage = 3.11248e-05 W
            Runtime Dynamic = 0 W

          FP Retire RAT:
            Area = 0.0111561 mm^2
            Peak Dynamic = 0.013167 W
            Subthreshold Leakage = 0.00065932 W
            Gate Leakage = 2.49388e-05 W
            Runtime Dynamic = 0 W

          FP Free List:
            Area = 0.0824369 mm^2
            Peak Dynamic = 0.0478719 W
            Subthreshold Leakage = 0.00345646 W
            Gate Leakage = 9.82089e-05 W
            Runtime Dynamic = 2.6152e-07 W

      Load Store Unit:
        Area = 0.875325 mm^2
        Peak Dynamic = 1.31008 W
        Subthreshold Leakage = 0.307052 W
        Gate Leakage = 0.0148495 W
        Runtime Dynamic = 0.0008245 W

          Data Cache:
            Area = 0.231404 mm^2
            Peak Dynamic = 0.403485 W
            Subthreshold Leakage = 0.101848 W
            Gate Leakage = 0.00404542 W
            Runtime Dynamic = 3.11852e-11 W

          LoadQ:
            Area = 0.268613 mm^2
            Peak Dynamic = 0.40502 W
            Subthreshold Leakage = 0.0818531 W
            Gate Leakage = 0.00329078 W
            Runtime Dynamic = 0.000274833 W

          StoreQ:
            Area = 0.268613 mm^2
            Peak Dynamic = 0.40502 W
            Subthreshold Leakage = 0.0818531 W
            Gate Leakage = 0.00329078 W
            Runtime Dynamic = 0.000549666 W

      Memory Management Unit:
        Area = 0.218493 mm^2
        Peak Dynamic = 0.213214 W
        Subthreshold Leakage = 0.099136 W
        Gate Leakage = 0.00647838 W
        Runtime Dynamic = 2.5344e-06 W

          Itlb:
            Area = 0.0224248 mm^2
            Peak Dynamic = 0.0148392 W
            Subthreshold Leakage = 0.00889002 W
            Gate Leakage = 0.000350037 W
            Runtime Dynamic = 2.53437e-06 W

          Dtlb:
            Area = 0.166236 mm^2
            Peak Dynamic = 0.101821 W
            Subthreshold Leakage = 0.0487475 W
            Gate Leakage = 0.00190585 W
            Runtime Dynamic = 1.35808e-11 W

      Execution Unit:
        Area = 11.0862 mm^2
        Peak Dynamic = 9.64771 W
        Subthreshold Leakage = 5.74786 W
        Gate Leakage = 0.233639 W
        Runtime Dynamic = 0.337465 W

          Register Files:
            Area = 2.26478 mm^2
            Peak Dynamic = 2.66097 W
            Subthreshold Leakage = 0.113345 W
            Gate Leakage = 0.00360427 W
            Runtime Dynamic = 0.000537606 W

              Integer RF:
                Area = 1.13239 mm^2
                Peak Dynamic = 1.52055 W
                Subthreshold Leakage = 0.0566724 W
                Gate Leakage = 0.00180213 W
                Runtime Dynamic = 0.000534535 W

              Floating Point RF:
                Area = 1.13239 mm^2
                Peak Dynamic = 1.14041 W
                Subthreshold Leakage = 0.0566724 W
                Gate Leakage = 0.00180213 W
                Runtime Dynamic = 3.0707e-06 W

          Instruction Scheduler:
            Area = 0.752987 mm^2
            Peak Dynamic = 1.37144 W
            Subthreshold Leakage = 0.103893 W
            Gate Leakage = 0.00387543 W
            Runtime Dynamic = 0.00112198 W

              Instruction Window:
                Area = 0.120064 mm^2
                Peak Dynamic = 0.334445 W
                Subthreshold Leakage = 0.0219608 W
                Gate Leakage = 0.000910492 W
                Runtime Dynamic = 0.000592328 W

              FP Instruction Window:
                Area = 0.233305 mm^2
                Peak Dynamic = 0.469621 W
                Subthreshold Leakage = 0.0563153 W
                Gate Leakage = 0.00227521 W
                Runtime Dynamic = 6.11813e-06 W

              ROB:
                Area = 0.399618 mm^2
                Peak Dynamic = 0.567376 W
                Subthreshold Leakage = 0.0256169 W
                Gate Leakage = 0.000689732 W
                Runtime Dynamic = 0.000523539 W

          Integer ALUs (Count: 8 ):
            Area = 0.439479 mm^2
            Peak Dynamic = 0.926622 W
            Subthreshold Leakage = 0.851296 W
            Gate Leakage = 0.0344197 W
            Runtime Dynamic = 0.0562677 W

          Floating Point Units (FPUs) (Count: 6 ):
            Area = 7.06712 mm^2
            Peak Dynamic = 2.12662 W
            Subthreshold Leakage = 3.42235 W
            Gate Leakage = 0.138373 W
            Runtime Dynamic = 0.166896 W

          Complex ALUs (Mul/Div) (Count: 3 ):
            Area = 0.494414 mm^2
            Peak Dynamic = 0.229349 W
            Subthreshold Leakage = 0.957708 W
            Gate Leakage = 0.0387221 W
            Runtime Dynamic = 0.111251 W

          Results Broadcast Bus:
            Area Overhead = 0.0375694 mm^2
            Peak Dynamic = 2.23617 W
            Subthreshold Leakage = 0.257769 W
            Gate Leakage = 0.0104221 W
            Runtime Dynamic = 0.00138963 W

*****************************************************************************************
L2
      Area = 8.27164 mm^2
      Peak Dynamic = 0.112651 W
      Subthreshold Leakage = 5.291 W
      Gate Leakage = 0.138421 W
      Runtime Dynamic = 0.000772159 W

*****************************************************************************************
First Level Directory
      Area = 0.230936 mm^2
      Peak Dynamic = 0.0100361 W
      Subthreshold Leakage = 0.160847 W
      Gate Leakage = 0.00488567 W
      Runtime Dynamic = 0 W

*****************************************************************************************
Memory Controller:
      Area = 0.271054 mm^2
      Peak Dynamic = 0.299952 W
      Subthreshold Leakage = 0.0388043 W
      Gate Leakage = 0.00183315 W
      Runtime Dynamic = 0.0300364 W

      Front End Engine:
        Area = 0.234699 mm^2
        Peak Dynamic = 0.18131 W
        Subthreshold Leakage = 0.0348135 W
        Gate Leakage = 0.00138987 W
        Runtime Dynamic = 0.0181434 W

      Transaction Engine:
        Area = 0.036355 mm^2
        Peak Dynamic = 0.118642 W
        Subthreshold Leakage = 0.00399073 W
        Gate Leakage = 0.000443275 W
        Runtime Dynamic = 0.011893 W

*****************************************************************************************
BUSES
      Area = 0.0389605 mm^2
      Peak Dynamic = 0.114831 W
      Subthreshold Leakage = 0.0224928 W
      Gate Leakage = 0.000909432 W
      Runtime Dynamic = 0 W

      Bus: 
        Area = 0.0389605 mm^2
        Peak Dynamic = 0.114831 W
        Subthreshold Leakage = 0.0224928 W
        Gate Leakage = 0.000909432 W
        Runtime Dynamic = 0 W

*****************************************************************************************

McPAT (version 1.1 of March, 2014) results  (current print level is 5)
*****************************************************************************************
  Technology 32 nm
  Interconnect metal projection= aggressive interconnect technology projection
  Core clock Rate(MHz) 2000

*****************************************************************************************
Processor: 
  Area = 46.3495 mm^2
  Peak Power = 91.2763 W
  Total Leakage = 25.3971 W
  Peak Dynamic = 65.8792 W
  Subthreshold Leakage = 24.4309 W
  Gate Leakage = 0.966284 W
  Runtime Dynamic = 3.63054 W

  Total Cores: 2 cores 
  Device Type= ITRS high performance device type
    Area = 37.5369 mm^2
    Peak Dynamic = 65.3417 W
    Subthreshold Leakage = 18.9177 W
    Gate Leakage = 0.820234 W
    Runtime Dynamic = 3.58214 W

  Total L2s: 
  Device Type= ITRS high performance device type
    Area = 8.27164 mm^2
    Peak Dynamic = 0.112651 W
    Subthreshold Leakage = 5.291 W
    Gate Leakage = 0.138421 W
    Runtime Dynamic = 0.0183403 W

  Total First Level Directory: 
  Device Type= ITRS high performance device type
    Area = 0.230936 mm^2
    Peak Dynamic = 0.0100361 W
    Subthreshold Leakage = 0.160847 W
    Gate Leakage = 0.00488567 W
    Runtime Dynamic = 0 W

  Total NoCs (Network/Bus): 
  Device Type= ITRS high performance device type
    Area = 0.0389605 mm^2
    Peak Dynamic = 0.114831 W
    Subthreshold Leakage = 0.0224928 W
    Gate Leakage = 0.000909432 W
    Runtime Dynamic = 0 W

  Total MCs: 1 Memory Controllers 
  Device Type= ITRS high performance device type
    Area = 0.271054 mm^2
    Peak Dynamic = 0.299952 W
    Subthreshold Leakage = 0.0388043 W
    Gate Leakage = 0.00183315 W
    Runtime Dynamic = 0.0300634 W

*****************************************************************************************
Core:
      Area = 18.7685 mm^2
      Peak Dynamic = 32.6708 W
      Subthreshold Leakage = 9.45886 W
      Gate Leakage = 0.410117 W
      Runtime Dynamic = 3.24523 W

      Instruction Fetch Unit:
        Area = 0.373716 mm^2
        Peak Dynamic = 0.852367 W
        Subthreshold Leakage = 0.180795 W
        Gate Leakage = 0.00860996 W
        Runtime Dynamic = 0.136774 W

          Instruction Cache:
            Area = 0.031153 mm^2
            Peak Dynamic = 0.0582816 W
            Subthreshold Leakage = 0.019862 W
            Gate Leakage = 0.000772322 W
            Runtime Dynamic = 3.1316e-11 W

          Branch Target Buffer:
            Area = 0.218343 mm^2
            Peak Dynamic = 0.0267203 W
            Subthreshold Leakage = 0.0792175 W
            Gate Leakage = 0.00258463 W
            Runtime Dynamic = 4.6806e-11 W

          Branch Predictor:
            Area = 0.0695659 mm^2
            Peak Dynamic = 0.0221683 W
            Subthreshold Leakage = 0.0333239 W
            Gate Leakage = 0.000813825 W
            Runtime Dynamic = 0.00243397 W

              Global Predictor:
                Area = 0.0246062 mm^2
                Peak Dynamic = 0.00680391 W
                Subthreshold Leakage = 0.0119463 W
                Gate Leakage = 0.000281893 W
                Runtime Dynamic = 0.000810014 W

              Local Predictor:
              L1_Local Predictor:
                Area = 0.0116952 mm^2
                Peak Dynamic = 0.00411002 W
                Subthreshold Leakage = 0.00621882 W
                Gate Leakage = 0.000155927 W
                Runtime Dynamic = 0.000511223 W

              L2_Local Predictor:
                Area = 0.00590338 mm^2
                Peak Dynamic = 0.0020446 W
                Subthreshold Leakage = 0.0027348 W
                Gate Leakage = 7.97825e-05 W
                Runtime Dynamic = 0.00025429 W

              Chooser:
                Area = 0.0246062 mm^2
                Peak Dynamic = 0.00680391 W
                Subthreshold Leakage = 0.0119463 W
                Gate Leakage = 0.000281893 W
                Runtime Dynamic = 0.000810014 W

              RAS:
                Area = 0.00275494 mm^2
                Peak Dynamic = 0.00240583 W
                Subthreshold Leakage = 0.000477777 W
                Gate Leakage = 1.43306e-05 W
                Runtime Dynamic = 4.84306e-05 W

          Instruction Buffer:
            Area = 0.012681 mm^2
            Peak Dynamic = 0.333876 W
            Subthreshold Leakage = 0.00241792 W
            Gate Leakage = 7.7627e-05 W
            Runtime Dynamic = 0.0691488 W

          Instruction Decoder:
            Area = 0.0121409 mm^2
            Peak Dynamic = 0.314767 W
            Subthreshold Leakage = 0.00447554 W
            Gate Leakage = 0.00013906 W
            Runtime Dynamic = 0.0651911 W

      Renaming Unit:
        Area = 4.07069 mm^2
        Peak Dynamic = 20.6475 W
        Subthreshold Leakage = 1.04744 W
        Gate Leakage = 0.0625803 W
        Runtime Dynamic = 1.57742 W

          Int Front End RAT:
            Area = 2.39226 mm^2
            Peak Dynamic = 13.7118 W
            Subthreshold Leakage = 0.602615 W
            Gate Leakage = 0.0343763 W
            Runtime Dynamic = 1.52573 W

          FP Front End RAT:
            Area = 1.41952 mm^2
            Peak Dynamic = 6.70218 W
            Subthreshold Leakage = 0.394292 W
            Gate Leakage = 0.0237137 W
            Runtime Dynamic = 0.0433435 W

          Free List:
            Area = 0.116512 mm^2
            Peak Dynamic = 0.0548029 W
            Subthreshold Leakage = 0.00408189 W
            Gate Leakage = 0.00011355 W
            Runtime Dynamic = 0.00804008 W

          Int Retire RAT: 
            Area = 0.0189764 mm^2
            Peak Dynamic = 0.0211238 W
            Subthreshold Leakage = 0.000839329 W
            Gate Leakage = 3.11248e-05 W
            Runtime Dynamic = 0 W

          FP Retire RAT:
            Area = 0.0111561 mm^2
            Peak Dynamic = 0.013167 W
            Subthreshold Leakage = 0.00065932 W
            Gate Leakage = 2.49388e-05 W
            Runtime Dynamic = 0 W

          FP Free List:
            Area = 0.0824369 mm^2
            Peak Dynamic = 0.0478719 W
            Subthreshold Leakage = 0.00345646 W
            Gate Leakage = 9.82089e-05 W
            Runtime Dynamic = 0.000302003 W

      Load Store Unit:
        Area = 0.875325 mm^2
        Peak Dynamic = 1.31008 W
        Subthreshold Leakage = 0.307052 W
        Gate Leakage = 0.0148495 W
        Runtime Dynamic = 0.234329 W

          Data Cache:
            Area = 0.231404 mm^2
            Peak Dynamic = 0.403485 W
            Subthreshold Leakage = 0.101848 W
            Gate Leakage = 0.00404542 W
            Runtime Dynamic = 7.35371e-11 W

          LoadQ:
            Area = 0.268613 mm^2
            Peak Dynamic = 0.40502 W
            Subthreshold Leakage = 0.0818531 W
            Gate Leakage = 0.00329078 W
            Runtime Dynamic = 0.0781098 W

          StoreQ:
            Area = 0.268613 mm^2
            Peak Dynamic = 0.40502 W
            Subthreshold Leakage = 0.0818531 W
            Gate Leakage = 0.00329078 W
            Runtime Dynamic = 0.15622 W

      Memory Management Unit:
        Area = 0.218493 mm^2
        Peak Dynamic = 0.213214 W
        Subthreshold Leakage = 0.099136 W
        Gate Leakage = 0.00647838 W
        Runtime Dynamic = 0.00292336 W

          Itlb:
            Area = 0.0224248 mm^2
            Peak Dynamic = 0.0148392 W
            Subthreshold Leakage = 0.00889002 W
            Gate Leakage = 0.000350037 W
            Runtime Dynamic = 0.00292336 W

          Dtlb:
            Area = 0.166236 mm^2
            Peak Dynamic = 0.101821 W
            Subthreshold Leakage = 0.0487475 W
            Gate Leakage = 0.00190585 W
            Runtime Dynamic = 3.20246e-11 W

      Execution Unit:
        Area = 11.0862 mm^2
        Peak Dynamic = 9.64771 W
        Subthreshold Leakage = 5.74786 W
        Gate Leakage = 0.233639 W
        Runtime Dynamic = 1.29378 W

          Register Files:
            Area = 2.26478 mm^2
            Peak Dynamic = 2.66097 W
            Subthreshold Leakage = 0.113345 W
            Gate Leakage = 0.00360427 W
            Runtime Dynamic = 0.176881 W

              Integer RF:
                Area = 1.13239 mm^2
                Peak Dynamic = 1.52055 W
                Subthreshold Leakage = 0.0566724 W
                Gate Leakage = 0.00180213 W
                Runtime Dynamic = 0.172271 W

              Floating Point RF:
                Area = 1.13239 mm^2
                Peak Dynamic = 1.14041 W
                Subthreshold Leakage = 0.0566724 W
                Gate Leakage = 0.00180213 W
                Runtime Dynamic = 0.00460992 W

          Instruction Scheduler:
            Area = 0.752987 mm^2
            Peak Dynamic = 1.37144 W
            Subthreshold Leakage = 0.103893 W
            Gate Leakage = 0.00387543 W
            Runtime Dynamic = 0.139795 W

              Instruction Window:
                Area = 0.120064 mm^2
                Peak Dynamic = 0.334445 W
                Subthreshold Leakage = 0.0219608 W
                Gate Leakage = 0.000910492 W
                Runtime Dynamic = 0.131843 W

              FP Instruction Window:
                Area = 0.233305 mm^2
                Peak Dynamic = 0.469621 W
                Subthreshold Leakage = 0.0563153 W
                Gate Leakage = 0.00227521 W
                Runtime Dynamic = 0.0067177 W

              ROB:
                Area = 0.399618 mm^2
                Peak Dynamic = 0.567376 W
                Subthreshold Leakage = 0.0256169 W
                Gate Leakage = 0.000689732 W
                Runtime Dynamic = 0.00123454 W

          Integer ALUs (Count: 8 ):
            Area = 0.439479 mm^2
            Peak Dynamic = 0.926622 W
            Subthreshold Leakage = 0.851296 W
            Gate Leakage = 0.0344197 W
            Runtime Dynamic = 0.239564 W

          Floating Point Units (FPUs) (Count: 6 ):
            Area = 7.06712 mm^2
            Peak Dynamic = 2.12662 W
            Subthreshold Leakage = 3.42235 W
            Gate Leakage = 0.138373 W
            Runtime Dynamic = 0.189204 W

          Complex ALUs (Mul/Div) (Count: 3 ):
            Area = 0.494414 mm^2
            Peak Dynamic = 0.229349 W
            Subthreshold Leakage = 0.957708 W
            Gate Leakage = 0.0387221 W
            Runtime Dynamic = 0.117665 W

          Results Broadcast Bus:
            Area Overhead = 0.0375694 mm^2
            Peak Dynamic = 2.23617 W
            Subthreshold Leakage = 0.257769 W
            Gate Leakage = 0.0104221 W
            Runtime Dynamic = 0.430672 W

*****************************************************************************************
Core:
      Area = 18.7685 mm^2
      Peak Dynamic = 32.6708 W
      Subthreshold Leakage = 9.45886 W
      Gate Leakage = 0.410117 W
      Runtime Dynamic = 0.33691 W

      Instruction Fetch Unit:
        Area = 0.373716 mm^2
        Peak Dynamic = 0.852367 W
        Subthreshold Leakage = 0.180795 W
        Gate Leakage = 0.00860996 W
        Runtime Dynamic = 9.60558e-05 W

          Instruction Cache:
            Area = 0.031153 mm^2
            Peak Dynamic = 0.0582816 W
            Subthreshold Leakage = 0.019862 W
            Gate Leakage = 0.000772322 W
            Runtime Dynamic = 3.1316e-11 W

          Branch Target Buffer:
            Area = 0.218343 mm^2
            Peak Dynamic = 0.0267203 W
            Subthreshold Leakage = 0.0792175 W
            Gate Leakage = 0.00258463 W
            Runtime Dynamic = 4.6806e-11 W

          Branch Predictor:
            Area = 0.0695659 mm^2
            Peak Dynamic = 0.0221683 W
            Subthreshold Leakage = 0.0333239 W
            Gate Leakage = 0.000813825 W
            Runtime Dynamic = 4.56497e-06 W

              Global Predictor:
                Area = 0.0246062 mm^2
                Peak Dynamic = 0.00680391 W
                Subthreshold Leakage = 0.0119463 W
                Gate Leakage = 0.000281893 W
                Runtime Dynamic = 1.51347e-06 W

              Local Predictor:
              L1_Local Predictor:
                Area = 0.0116952 mm^2
                Peak Dynamic = 0.00411002 W
                Subthreshold Leakage = 0.00621882 W
                Gate Leakage = 0.000155927 W
                Runtime Dynamic = 9.46124e-07 W

              L2_Local Predictor:
                Area = 0.00590338 mm^2
                Peak Dynamic = 0.0020446 W
                Subthreshold Leakage = 0.0027348 W
                Gate Leakage = 7.97825e-05 W
                Runtime Dynamic = 4.70627e-07 W

              Chooser:
                Area = 0.0246062 mm^2
                Peak Dynamic = 0.00680391 W
                Subthreshold Leakage = 0.0119463 W
                Gate Leakage = 0.000281893 W
                Runtime Dynamic = 1.51347e-06 W

              RAS:
                Area = 0.00275494 mm^2
                Peak Dynamic = 0.00240583 W
                Subthreshold Leakage = 0.000477777 W
                Gate Leakage = 1.43306e-05 W
                Runtime Dynamic = 1.21284e-07 W

          Instruction Buffer:
            Area = 0.012681 mm^2
            Peak Dynamic = 0.333876 W
            Subthreshold Leakage = 0.00241792 W
            Gate Leakage = 7.7627e-05 W
            Runtime Dynamic = 4.7093e-05 W

          Instruction Decoder:
            Area = 0.0121409 mm^2
            Peak Dynamic = 0.314767 W
            Subthreshold Leakage = 0.00447554 W
            Gate Leakage = 0.00013906 W
            Runtime Dynamic = 4.43977e-05 W

      Renaming Unit:
        Area = 4.07069 mm^2
        Peak Dynamic = 20.6475 W
        Subthreshold Leakage = 1.04744 W
        Gate Leakage = 0.0625803 W
        Runtime Dynamic = 0.00100397 W

          Int Front End RAT:
            Area = 2.39226 mm^2
            Peak Dynamic = 13.7118 W
            Subthreshold Leakage = 0.602615 W
            Gate Leakage = 0.0343763 W
            Runtime Dynamic = 0.00099798 W

          FP Front End RAT:
            Area = 1.41952 mm^2
            Peak Dynamic = 6.70218 W
            Subthreshold Leakage = 0.394292 W
            Gate Leakage = 0.0237137 W
            Runtime Dynamic = 7.23834e-07 W

          Free List:
            Area = 0.116512 mm^2
            Peak Dynamic = 0.0548029 W
            Subthreshold Leakage = 0.00408189 W
            Gate Leakage = 0.00011355 W
            Runtime Dynamic = 5.25901e-06 W

          Int Retire RAT: 
            Area = 0.0189764 mm^2
            Peak Dynamic = 0.0211238 W
            Subthreshold Leakage = 0.000839329 W
            Gate Leakage = 3.11248e-05 W
            Runtime Dynamic = 0 W

          FP Retire RAT:
            Area = 0.0111561 mm^2
            Peak Dynamic = 0.013167 W
            Subthreshold Leakage = 0.00065932 W
            Gate Leakage = 2.49388e-05 W
            Runtime Dynamic = 0 W

          FP Free List:
            Area = 0.0824369 mm^2
            Peak Dynamic = 0.0478719 W
            Subthreshold Leakage = 0.00345646 W
            Gate Leakage = 9.82089e-05 W
            Runtime Dynamic = 5.04342e-09 W

      Load Store Unit:
        Area = 0.875325 mm^2
        Peak Dynamic = 1.31008 W
        Subthreshold Leakage = 0.307052 W
        Gate Leakage = 0.0148495 W
        Runtime Dynamic = 0.000172939 W

          Data Cache:
            Area = 0.231404 mm^2
            Peak Dynamic = 0.403485 W
            Subthreshold Leakage = 0.101848 W
            Gate Leakage = 0.00404542 W
            Runtime Dynamic = 7.35371e-11 W

          LoadQ:
            Area = 0.268613 mm^2
            Peak Dynamic = 0.40502 W
            Subthreshold Leakage = 0.0818531 W
            Gate Leakage = 0.00329078 W
            Runtime Dynamic = 5.76462e-05 W

          StoreQ:
            Area = 0.268613 mm^2
            Peak Dynamic = 0.40502 W
            Subthreshold Leakage = 0.0818531 W
            Gate Leakage = 0.00329078 W
            Runtime Dynamic = 0.000115292 W

      Memory Management Unit:
        Area = 0.218493 mm^2
        Peak Dynamic = 0.213214 W
        Subthreshold Leakage = 0.099136 W
        Gate Leakage = 0.00647838 W
        Runtime Dynamic = 7.88103e-07 W

          Itlb:
            Area = 0.0224248 mm^2
            Peak Dynamic = 0.0148392 W
            Subthreshold Leakage = 0.00889002 W
            Gate Leakage = 0.000350037 W
            Runtime Dynamic = 7.88022e-07 W

          Dtlb:
            Area = 0.166236 mm^2
            Peak Dynamic = 0.101821 W
            Subthreshold Leakage = 0.0487475 W
            Gate Leakage = 0.00190585 W
            Runtime Dynamic = 3.20246e-11 W

      Execution Unit:
        Area = 11.0862 mm^2
        Peak Dynamic = 9.64771 W
        Subthreshold Leakage = 5.74786 W
        Gate Leakage = 0.233639 W
        Runtime Dynamic = 0.335636 W

          Register Files:
            Area = 2.26478 mm^2
            Peak Dynamic = 2.66097 W
            Subthreshold Leakage = 0.113345 W
            Gate Leakage = 0.00360427 W
            Runtime Dynamic = 0.000110073 W

              Integer RF:
                Area = 1.13239 mm^2
                Peak Dynamic = 1.52055 W
                Subthreshold Leakage = 0.0566724 W
                Gate Leakage = 0.00180213 W
                Runtime Dynamic = 0.000110018 W

              Floating Point RF:
                Area = 1.13239 mm^2
                Peak Dynamic = 1.14041 W
                Subthreshold Leakage = 0.0566724 W
                Gate Leakage = 0.00180213 W
                Runtime Dynamic = 5.46707e-08 W

          Instruction Scheduler:
            Area = 0.752987 mm^2
            Peak Dynamic = 1.37144 W
            Subthreshold Leakage = 0.103893 W
            Gate Leakage = 0.00387543 W
            Runtime Dynamic = 0.00135866 W

              Instruction Window:
                Area = 0.120064 mm^2
                Peak Dynamic = 0.334445 W
                Subthreshold Leakage = 0.0219608 W
                Gate Leakage = 0.000910492 W
                Runtime Dynamic = 0.000123995 W

              FP Instruction Window:
                Area = 0.233305 mm^2
                Peak Dynamic = 0.469621 W
                Subthreshold Leakage = 0.0563153 W
                Gate Leakage = 0.00227521 W
                Runtime Dynamic = 1.21034e-07 W

              ROB:
                Area = 0.399618 mm^2
                Peak Dynamic = 0.567376 W
                Subthreshold Leakage = 0.0256169 W
                Gate Leakage = 0.000689732 W
                Runtime Dynamic = 0.00123454 W

          Integer ALUs (Count: 8 ):
            Area = 0.439479 mm^2
            Peak Dynamic = 0.926622 W
            Subthreshold Leakage = 0.851296 W
            Gate Leakage = 0.0344197 W
            Runtime Dynamic = 0.0557592 W

          Floating Point Units (FPUs) (Count: 6 ):
            Area = 7.06712 mm^2
            Peak Dynamic = 2.12662 W
            Subthreshold Leakage = 3.42235 W
            Gate Leakage = 0.138373 W
            Runtime Dynamic = 0.166874 W

          Complex ALUs (Mul/Div) (Count: 3 ):
            Area = 0.494414 mm^2
            Peak Dynamic = 0.229349 W
            Subthreshold Leakage = 0.957708 W
            Gate Leakage = 0.0387221 W
            Runtime Dynamic = 0.11125 W

          Results Broadcast Bus:
            Area Overhead = 0.0375694 mm^2
            Peak Dynamic = 2.23617 W
            Subthreshold Leakage = 0.257769 W
            Gate Leakage = 0.0104221 W
            Runtime Dynamic = 0.000284422 W

*****************************************************************************************
L2
      Area = 8.27164 mm^2
      Peak Dynamic = 0.112651 W
      Subthreshold Leakage = 5.291 W
      Gate Leakage = 0.138421 W
      Runtime Dynamic = 0.0183403 W

*****************************************************************************************
First Level Directory
      Area = 0.230936 mm^2
      Peak Dynamic = 0.0100361 W
      Subthreshold Leakage = 0.160847 W
      Gate Leakage = 0.00488567 W
      Runtime Dynamic = 0 W

*****************************************************************************************
Memory Controller:
      Area = 0.271054 mm^2
      Peak Dynamic = 0.299952 W
      Subthreshold Leakage = 0.0388043 W
      Gate Leakage = 0.00183315 W
      Runtime Dynamic = 0.0300634 W

      Front End Engine:
        Area = 0.234699 mm^2
        Peak Dynamic = 0.18131 W
        Subthreshold Leakage = 0.0348135 W
        Gate Leakage = 0.00138987 W
        Runtime Dynamic = 0.0181516 W

      Transaction Engine:
        Area = 0.036355 mm^2
        Peak Dynamic = 0.118642 W
        Subthreshold Leakage = 0.00399073 W
        Gate Leakage = 0.000443275 W
        Runtime Dynamic = 0.0119118 W

*****************************************************************************************
BUSES
      Area = 0.0389605 mm^2
      Peak Dynamic = 0.114831 W
      Subthreshold Leakage = 0.0224928 W
      Gate Leakage = 0.000909432 W
      Runtime Dynamic = 0 W

      Bus: 
        Area = 0.0389605 mm^2
        Peak Dynamic = 0.114831 W
        Subthreshold Leakage = 0.0224928 W
        Gate Leakage = 0.000909432 W
        Runtime Dynamic = 0 W

*****************************************************************************************

McPAT (version 1.1 of March, 2014) results  (current print level is 5)
*****************************************************************************************
  Technology 32 nm
  Interconnect metal projection= aggressive interconnect technology projection
  Core clock Rate(MHz) 2000

*****************************************************************************************
Processor: 
  Area = 46.3495 mm^2
  Peak Power = 91.2763 W
  Total Leakage = 25.3971 W
  Peak Dynamic = 65.8792 W
  Subthreshold Leakage = 24.4309 W
  Gate Leakage = 0.966284 W
  Runtime Dynamic = 3.70225 W

  Total Cores: 2 cores 
  Device Type= ITRS high performance device type
    Area = 37.5369 mm^2
    Peak Dynamic = 65.3417 W
    Subthreshold Leakage = 18.9177 W
    Gate Leakage = 0.820234 W
    Runtime Dynamic = 3.65396 W

  Total L2s: 
  Device Type= ITRS high performance device type
    Area = 8.27164 mm^2
    Peak Dynamic = 0.112651 W
    Subthreshold Leakage = 5.291 W
    Gate Leakage = 0.138421 W
    Runtime Dynamic = 0.0182599 W

  Total First Level Directory: 
  Device Type= ITRS high performance device type
    Area = 0.230936 mm^2
    Peak Dynamic = 0.0100361 W
    Subthreshold Leakage = 0.160847 W
    Gate Leakage = 0.00488567 W
    Runtime Dynamic = 0 W

  Total NoCs (Network/Bus): 
  Device Type= ITRS high performance device type
    Area = 0.0389605 mm^2
    Peak Dynamic = 0.114831 W
    Subthreshold Leakage = 0.0224928 W
    Gate Leakage = 0.000909432 W
    Runtime Dynamic = 0 W

  Total MCs: 1 Memory Controllers 
  Device Type= ITRS high performance device type
    Area = 0.271054 mm^2
    Peak Dynamic = 0.299952 W
    Subthreshold Leakage = 0.0388043 W
    Gate Leakage = 0.00183315 W
    Runtime Dynamic = 0.0300319 W

*****************************************************************************************
Core:
      Area = 18.7685 mm^2
      Peak Dynamic = 32.6708 W
      Subthreshold Leakage = 9.45886 W
      Gate Leakage = 0.410117 W
      Runtime Dynamic = 3.31799 W

      Instruction Fetch Unit:
        Area = 0.373716 mm^2
        Peak Dynamic = 0.852367 W
        Subthreshold Leakage = 0.180795 W
        Gate Leakage = 0.00860996 W
        Runtime Dynamic = 0.14063 W

          Instruction Cache:
            Area = 0.031153 mm^2
            Peak Dynamic = 0.0582816 W
            Subthreshold Leakage = 0.019862 W
            Gate Leakage = 0.000772322 W
            Runtime Dynamic = 1.56537e-11 W

          Branch Target Buffer:
            Area = 0.218343 mm^2
            Peak Dynamic = 0.0267203 W
            Subthreshold Leakage = 0.0792175 W
            Gate Leakage = 0.00258463 W
            Runtime Dynamic = 2.33965e-11 W

          Branch Predictor:
            Area = 0.0695659 mm^2
            Peak Dynamic = 0.0221683 W
            Subthreshold Leakage = 0.0333239 W
            Gate Leakage = 0.000813825 W
            Runtime Dynamic = 0.00245129 W

              Global Predictor:
                Area = 0.0246062 mm^2
                Peak Dynamic = 0.00680391 W
                Subthreshold Leakage = 0.0119463 W
                Gate Leakage = 0.000281893 W
                Runtime Dynamic = 0.000816051 W

              Local Predictor:
              L1_Local Predictor:
                Area = 0.0116952 mm^2
                Peak Dynamic = 0.00411002 W
                Subthreshold Leakage = 0.00621882 W
                Gate Leakage = 0.000155927 W
                Runtime Dynamic = 0.000514698 W

              L2_Local Predictor:
                Area = 0.00590338 mm^2
                Peak Dynamic = 0.0020446 W
                Subthreshold Leakage = 0.0027348 W
                Gate Leakage = 7.97825e-05 W
                Runtime Dynamic = 0.000256019 W

              Chooser:
                Area = 0.0246062 mm^2
                Peak Dynamic = 0.00680391 W
                Subthreshold Leakage = 0.0119463 W
                Gate Leakage = 0.000281893 W
                Runtime Dynamic = 0.000816051 W

              RAS:
                Area = 0.00275494 mm^2
                Peak Dynamic = 0.00240583 W
                Subthreshold Leakage = 0.000477777 W
                Gate Leakage = 1.43306e-05 W
                Runtime Dynamic = 4.84674e-05 W

          Instruction Buffer:
            Area = 0.012681 mm^2
            Peak Dynamic = 0.333876 W
            Subthreshold Leakage = 0.00241792 W
            Gate Leakage = 7.7627e-05 W
            Runtime Dynamic = 0.0711245 W

          Instruction Decoder:
            Area = 0.0121409 mm^2
            Peak Dynamic = 0.314767 W
            Subthreshold Leakage = 0.00447554 W
            Gate Leakage = 0.00013906 W
            Runtime Dynamic = 0.0670538 W

      Renaming Unit:
        Area = 4.07069 mm^2
        Peak Dynamic = 20.6475 W
        Subthreshold Leakage = 1.04744 W
        Gate Leakage = 0.0625803 W
        Runtime Dynamic = 1.61872 W

          Int Front End RAT:
            Area = 2.39226 mm^2
            Peak Dynamic = 13.7118 W
            Subthreshold Leakage = 0.602615 W
            Gate Leakage = 0.0343763 W
            Runtime Dynamic = 1.56839 W

          FP Front End RAT:
            Area = 1.41952 mm^2
            Peak Dynamic = 6.70218 W
            Subthreshold Leakage = 0.394292 W
            Gate Leakage = 0.0237137 W
            Runtime Dynamic = 0.0417807 W

          Free List:
            Area = 0.116512 mm^2
            Peak Dynamic = 0.0548029 W
            Subthreshold Leakage = 0.00408189 W
            Gate Leakage = 0.00011355 W
            Runtime Dynamic = 0.00826485 W

          Int Retire RAT: 
            Area = 0.0189764 mm^2
            Peak Dynamic = 0.0211238 W
            Subthreshold Leakage = 0.000839329 W
            Gate Leakage = 3.11248e-05 W
            Runtime Dynamic = 0 W

          FP Retire RAT:
            Area = 0.0111561 mm^2
            Peak Dynamic = 0.013167 W
            Subthreshold Leakage = 0.00065932 W
            Gate Leakage = 2.49388e-05 W
            Runtime Dynamic = 0 W

          FP Free List:
            Area = 0.0824369 mm^2
            Peak Dynamic = 0.0478719 W
            Subthreshold Leakage = 0.00345646 W
            Gate Leakage = 9.82089e-05 W
            Runtime Dynamic = 0.000291113 W

      Load Store Unit:
        Area = 0.875325 mm^2
        Peak Dynamic = 1.31008 W
        Subthreshold Leakage = 0.307052 W
        Gate Leakage = 0.0148495 W
        Runtime Dynamic = 0.238941 W

          Data Cache:
            Area = 0.231404 mm^2
            Peak Dynamic = 0.403485 W
            Subthreshold Leakage = 0.101848 W
            Gate Leakage = 0.00404542 W
            Runtime Dynamic = 3.67584e-11 W

          LoadQ:
            Area = 0.268613 mm^2
            Peak Dynamic = 0.40502 W
            Subthreshold Leakage = 0.0818531 W
            Gate Leakage = 0.00329078 W
            Runtime Dynamic = 0.0796471 W

          StoreQ:
            Area = 0.268613 mm^2
            Peak Dynamic = 0.40502 W
            Subthreshold Leakage = 0.0818531 W
            Gate Leakage = 0.00329078 W
            Runtime Dynamic = 0.159294 W

      Memory Management Unit:
        Area = 0.218493 mm^2
        Peak Dynamic = 0.213214 W
        Subthreshold Leakage = 0.099136 W
        Gate Leakage = 0.00647838 W
        Runtime Dynamic = 0.00296759 W

          Itlb:
            Area = 0.0224248 mm^2
            Peak Dynamic = 0.0148392 W
            Subthreshold Leakage = 0.00889002 W
            Gate Leakage = 0.000350037 W
            Runtime Dynamic = 0.00296759 W

          Dtlb:
            Area = 0.166236 mm^2
            Peak Dynamic = 0.101821 W
            Subthreshold Leakage = 0.0487475 W
            Gate Leakage = 0.00190585 W
            Runtime Dynamic = 1.60079e-11 W

      Execution Unit:
        Area = 11.0862 mm^2
        Peak Dynamic = 9.64771 W
        Subthreshold Leakage = 5.74786 W
        Gate Leakage = 0.233639 W
        Runtime Dynamic = 1.31673 W

          Register Files:
            Area = 2.26478 mm^2
            Peak Dynamic = 2.66097 W
            Subthreshold Leakage = 0.113345 W
            Gate Leakage = 0.00360427 W
            Runtime Dynamic = 0.181881 W

              Integer RF:
                Area = 1.13239 mm^2
                Peak Dynamic = 1.52055 W
                Subthreshold Leakage = 0.0566724 W
                Gate Leakage = 0.00180213 W
                Runtime Dynamic = 0.177407 W

              Floating Point RF:
                Area = 1.13239 mm^2
                Peak Dynamic = 1.14041 W
                Subthreshold Leakage = 0.0566724 W
                Gate Leakage = 0.00180213 W
                Runtime Dynamic = 0.00447417 W

          Instruction Scheduler:
            Area = 0.752987 mm^2
            Peak Dynamic = 1.37144 W
            Subthreshold Leakage = 0.103893 W
            Gate Leakage = 0.00387543 W
            Runtime Dynamic = 0.142183 W

              Instruction Window:
                Area = 0.120064 mm^2
                Peak Dynamic = 0.334445 W
                Subthreshold Leakage = 0.0219608 W
                Gate Leakage = 0.000910492 W
                Runtime Dynamic = 0.135088 W

              FP Instruction Window:
                Area = 0.233305 mm^2
                Peak Dynamic = 0.469621 W
                Subthreshold Leakage = 0.0563153 W
                Gate Leakage = 0.00227521 W
                Runtime Dynamic = 0.00647801 W

              ROB:
                Area = 0.399618 mm^2
                Peak Dynamic = 0.567376 W
                Subthreshold Leakage = 0.0256169 W
                Gate Leakage = 0.000689732 W
                Runtime Dynamic = 0.000617101 W

          Integer ALUs (Count: 8 ):
            Area = 0.439479 mm^2
            Peak Dynamic = 0.926622 W
            Subthreshold Leakage = 0.851296 W
            Gate Leakage = 0.0344197 W
            Runtime Dynamic = 0.244776 W

          Floating Point Units (FPUs) (Count: 6 ):
            Area = 7.06712 mm^2
            Peak Dynamic = 2.12662 W
            Subthreshold Leakage = 3.42235 W
            Gate Leakage = 0.138373 W
            Runtime Dynamic = 0.188457 W

          Complex ALUs (Mul/Div) (Count: 3 ):
            Area = 0.494414 mm^2
            Peak Dynamic = 0.229349 W
            Subthreshold Leakage = 0.957708 W
            Gate Leakage = 0.0387221 W
            Runtime Dynamic = 0.118271 W

          Results Broadcast Bus:
            Area Overhead = 0.0375694 mm^2
            Peak Dynamic = 2.23617 W
            Subthreshold Leakage = 0.257769 W
            Gate Leakage = 0.0104221 W
            Runtime Dynamic = 0.44116 W

*****************************************************************************************
Core:
      Area = 18.7685 mm^2
      Peak Dynamic = 32.6708 W
      Subthreshold Leakage = 9.45886 W
      Gate Leakage = 0.410117 W
      Runtime Dynamic = 0.335972 W

      Instruction Fetch Unit:
        Area = 0.373716 mm^2
        Peak Dynamic = 0.852367 W
        Subthreshold Leakage = 0.180795 W
        Gate Leakage = 0.00860996 W
        Runtime Dynamic = 8.07102e-05 W

          Instruction Cache:
            Area = 0.031153 mm^2
            Peak Dynamic = 0.0582816 W
            Subthreshold Leakage = 0.019862 W
            Gate Leakage = 0.000772322 W
            Runtime Dynamic = 1.56537e-11 W

          Branch Target Buffer:
            Area = 0.218343 mm^2
            Peak Dynamic = 0.0267203 W
            Subthreshold Leakage = 0.0792175 W
            Gate Leakage = 0.00258463 W
            Runtime Dynamic = 2.33965e-11 W

          Branch Predictor:
            Area = 0.0695659 mm^2
            Peak Dynamic = 0.0221683 W
            Subthreshold Leakage = 0.0333239 W
            Gate Leakage = 0.000813825 W
            Runtime Dynamic = 3.82825e-06 W

              Global Predictor:
                Area = 0.0246062 mm^2
                Peak Dynamic = 0.00680391 W
                Subthreshold Leakage = 0.0119463 W
                Gate Leakage = 0.000281893 W
                Runtime Dynamic = 1.26852e-06 W

              Local Predictor:
              L1_Local Predictor:
                Area = 0.0116952 mm^2
                Peak Dynamic = 0.00411002 W
                Subthreshold Leakage = 0.00621882 W
                Gate Leakage = 0.000155927 W
                Runtime Dynamic = 7.92149e-07 W

              L2_Local Predictor:
                Area = 0.00590338 mm^2
                Peak Dynamic = 0.0020446 W
                Subthreshold Leakage = 0.0027348 W
                Gate Leakage = 7.97825e-05 W
                Runtime Dynamic = 3.94037e-07 W

              Chooser:
                Area = 0.0246062 mm^2
                Peak Dynamic = 0.00680391 W
                Subthreshold Leakage = 0.0119463 W
                Gate Leakage = 0.000281893 W
                Runtime Dynamic = 1.26852e-06 W

              RAS:
                Area = 0.00275494 mm^2
                Peak Dynamic = 0.00240583 W
                Subthreshold Leakage = 0.000477777 W
                Gate Leakage = 1.43306e-05 W
                Runtime Dynamic = 1.05022e-07 W

          Instruction Buffer:
            Area = 0.012681 mm^2
            Peak Dynamic = 0.333876 W
            Subthreshold Leakage = 0.00241792 W
            Gate Leakage = 7.7627e-05 W
            Runtime Dynamic = 3.95734e-05 W

          Instruction Decoder:
            Area = 0.0121409 mm^2
            Peak Dynamic = 0.314767 W
            Subthreshold Leakage = 0.00447554 W
            Gate Leakage = 0.00013906 W
            Runtime Dynamic = 3.73085e-05 W

      Renaming Unit:
        Area = 4.07069 mm^2
        Peak Dynamic = 20.6475 W
        Subthreshold Leakage = 1.04744 W
        Gate Leakage = 0.0625803 W
        Runtime Dynamic = 0.000834863 W

          Int Front End RAT:
            Area = 2.39226 mm^2
            Peak Dynamic = 13.7118 W
            Subthreshold Leakage = 0.602615 W
            Gate Leakage = 0.0343763 W
            Runtime Dynamic = 0.000830104 W

          FP Front End RAT:
            Area = 1.41952 mm^2
            Peak Dynamic = 6.70218 W
            Subthreshold Leakage = 0.394292 W
            Gate Leakage = 0.0237137 W
            Runtime Dynamic = 3.81817e-07 W

          Free List:
            Area = 0.116512 mm^2
            Peak Dynamic = 0.0548029 W
            Subthreshold Leakage = 0.00408189 W
            Gate Leakage = 0.00011355 W
            Runtime Dynamic = 4.37436e-06 W

          Int Retire RAT: 
            Area = 0.0189764 mm^2
            Peak Dynamic = 0.0211238 W
            Subthreshold Leakage = 0.000839329 W
            Gate Leakage = 3.11248e-05 W
            Runtime Dynamic = 0 W

          FP Retire RAT:
            Area = 0.0111561 mm^2
            Peak Dynamic = 0.013167 W
            Subthreshold Leakage = 0.00065932 W
            Gate Leakage = 2.49388e-05 W
            Runtime Dynamic = 0 W

          FP Free List:
            Area = 0.0824369 mm^2
            Peak Dynamic = 0.0478719 W
            Subthreshold Leakage = 0.00345646 W
            Gate Leakage = 9.82089e-05 W
            Runtime Dynamic = 2.66037e-09 W

      Load Store Unit:
        Area = 0.875325 mm^2
        Peak Dynamic = 1.31008 W
        Subthreshold Leakage = 0.307052 W
        Gate Leakage = 0.0148495 W
        Runtime Dynamic = 0.000145535 W

          Data Cache:
            Area = 0.231404 mm^2
            Peak Dynamic = 0.403485 W
            Subthreshold Leakage = 0.101848 W
            Gate Leakage = 0.00404542 W
            Runtime Dynamic = 3.67584e-11 W

          LoadQ:
            Area = 0.268613 mm^2
            Peak Dynamic = 0.40502 W
            Subthreshold Leakage = 0.0818531 W
            Gate Leakage = 0.00329078 W
            Runtime Dynamic = 4.85118e-05 W

          StoreQ:
            Area = 0.268613 mm^2
            Peak Dynamic = 0.40502 W
            Subthreshold Leakage = 0.0818531 W
            Gate Leakage = 0.00329078 W
            Runtime Dynamic = 9.70236e-05 W

      Memory Management Unit:
        Area = 0.218493 mm^2
        Peak Dynamic = 0.213214 W
        Subthreshold Leakage = 0.099136 W
        Gate Leakage = 0.00647838 W
        Runtime Dynamic = 7.12798e-07 W

          Itlb:
            Area = 0.0224248 mm^2
            Peak Dynamic = 0.0148392 W
            Subthreshold Leakage = 0.00889002 W
            Gate Leakage = 0.000350037 W
            Runtime Dynamic = 7.12758e-07 W

          Dtlb:
            Area = 0.166236 mm^2
            Peak Dynamic = 0.101821 W
            Subthreshold Leakage = 0.0487475 W
            Gate Leakage = 0.00190585 W
            Runtime Dynamic = 1.60079e-11 W

      Execution Unit:
        Area = 11.0862 mm^2
        Peak Dynamic = 9.64771 W
        Subthreshold Leakage = 5.74786 W
        Gate Leakage = 0.233639 W
        Runtime Dynamic = 0.334911 W

          Register Files:
            Area = 2.26478 mm^2
            Peak Dynamic = 2.66097 W
            Subthreshold Leakage = 0.113345 W
            Gate Leakage = 0.00360427 W
            Runtime Dynamic = 9.20095e-05 W

              Integer RF:
                Area = 1.13239 mm^2
                Peak Dynamic = 1.52055 W
                Subthreshold Leakage = 0.0566724 W
                Gate Leakage = 0.00180213 W
                Runtime Dynamic = 9.19806e-05 W

              Floating Point RF:
                Area = 1.13239 mm^2
                Peak Dynamic = 1.14041 W
                Subthreshold Leakage = 0.0566724 W
                Gate Leakage = 0.00180213 W
                Runtime Dynamic = 2.89392e-08 W

          Instruction Scheduler:
            Area = 0.752987 mm^2
            Peak Dynamic = 1.37144 W
            Subthreshold Leakage = 0.103893 W
            Gate Leakage = 0.00387543 W
            Runtime Dynamic = 0.000720464 W

              Instruction Window:
                Area = 0.120064 mm^2
                Peak Dynamic = 0.334445 W
                Subthreshold Leakage = 0.0219608 W
                Gate Leakage = 0.000910492 W
                Runtime Dynamic = 0.0001033 W

              FP Instruction Window:
                Area = 0.233305 mm^2
                Peak Dynamic = 0.469621 W
                Subthreshold Leakage = 0.0563153 W
                Gate Leakage = 0.00227521 W
                Runtime Dynamic = 6.3725e-08 W

              ROB:
                Area = 0.399618 mm^2
                Peak Dynamic = 0.567376 W
                Subthreshold Leakage = 0.0256169 W
                Gate Leakage = 0.000689732 W
                Runtime Dynamic = 0.000617101 W

          Integer ALUs (Count: 8 ):
            Area = 0.439479 mm^2
            Peak Dynamic = 0.926622 W
            Subthreshold Leakage = 0.851296 W
            Gate Leakage = 0.0344197 W
            Runtime Dynamic = 0.0557372 W

          Floating Point Units (FPUs) (Count: 6 ):
            Area = 7.06712 mm^2
            Peak Dynamic = 2.12662 W
            Subthreshold Leakage = 3.42235 W
            Gate Leakage = 0.138373 W
            Runtime Dynamic = 0.166874 W

          Complex ALUs (Mul/Div) (Count: 3 ):
            Area = 0.494414 mm^2
            Peak Dynamic = 0.229349 W
            Subthreshold Leakage = 0.957708 W
            Gate Leakage = 0.0387221 W
            Runtime Dynamic = 0.11125 W

          Results Broadcast Bus:
            Area Overhead = 0.0375694 mm^2
            Peak Dynamic = 2.23617 W
            Subthreshold Leakage = 0.257769 W
            Gate Leakage = 0.0104221 W
            Runtime Dynamic = 0.00023768 W

*****************************************************************************************
L2
      Area = 8.27164 mm^2
      Peak Dynamic = 0.112651 W
      Subthreshold Leakage = 5.291 W
      Gate Leakage = 0.138421 W
      Runtime Dynamic = 0.0182599 W

*****************************************************************************************
First Level Directory
      Area = 0.230936 mm^2
      Peak Dynamic = 0.0100361 W
      Subthreshold Leakage = 0.160847 W
      Gate Leakage = 0.00488567 W
      Runtime Dynamic = 0 W

*****************************************************************************************
Memory Controller:
      Area = 0.271054 mm^2
      Peak Dynamic = 0.299952 W
      Subthreshold Leakage = 0.0388043 W
      Gate Leakage = 0.00183315 W
      Runtime Dynamic = 0.0300319 W

      Front End Engine:
        Area = 0.234699 mm^2
        Peak Dynamic = 0.18131 W
        Subthreshold Leakage = 0.0348135 W
        Gate Leakage = 0.00138987 W
        Runtime Dynamic = 0.0181421 W

      Transaction Engine:
        Area = 0.036355 mm^2
        Peak Dynamic = 0.118642 W
        Subthreshold Leakage = 0.00399073 W
        Gate Leakage = 0.000443275 W
        Runtime Dynamic = 0.0118898 W

*****************************************************************************************
BUSES
      Area = 0.0389605 mm^2
      Peak Dynamic = 0.114831 W
      Subthreshold Leakage = 0.0224928 W
      Gate Leakage = 0.000909432 W
      Runtime Dynamic = 0 W

      Bus: 
        Area = 0.0389605 mm^2
        Peak Dynamic = 0.114831 W
        Subthreshold Leakage = 0.0224928 W
        Gate Leakage = 0.000909432 W
        Runtime Dynamic = 0 W

*****************************************************************************************

McPAT (version 1.1 of March, 2014) results  (current print level is 5)
*****************************************************************************************
  Technology 32 nm
  Interconnect metal projection= aggressive interconnect technology projection
  Core clock Rate(MHz) 2000

*****************************************************************************************
Processor: 
  Area = 46.3495 mm^2
  Peak Power = 91.2763 W
  Total Leakage = 25.3971 W
  Peak Dynamic = 65.8792 W
  Subthreshold Leakage = 24.4309 W
  Gate Leakage = 0.966284 W
  Runtime Dynamic = 3.81383 W

  Total Cores: 2 cores 
  Device Type= ITRS high performance device type
    Area = 37.5369 mm^2
    Peak Dynamic = 65.3417 W
    Subthreshold Leakage = 18.9177 W
    Gate Leakage = 0.820234 W
    Runtime Dynamic = 3.76582 W

  Total L2s: 
  Device Type= ITRS high performance device type
    Area = 8.27164 mm^2
    Peak Dynamic = 0.112651 W
    Subthreshold Leakage = 5.291 W
    Gate Leakage = 0.138421 W
    Runtime Dynamic = 0.0179553 W

  Total First Level Directory: 
  Device Type= ITRS high performance device type
    Area = 0.230936 mm^2
    Peak Dynamic = 0.0100361 W
    Subthreshold Leakage = 0.160847 W
    Gate Leakage = 0.00488567 W
    Runtime Dynamic = 0 W

  Total NoCs (Network/Bus): 
  Device Type= ITRS high performance device type
    Area = 0.0389605 mm^2
    Peak Dynamic = 0.114831 W
    Subthreshold Leakage = 0.0224928 W
    Gate Leakage = 0.000909432 W
    Runtime Dynamic = 0 W

  Total MCs: 1 Memory Controllers 
  Device Type= ITRS high performance device type
    Area = 0.271054 mm^2
    Peak Dynamic = 0.299952 W
    Subthreshold Leakage = 0.0388043 W
    Gate Leakage = 0.00183315 W
    Runtime Dynamic = 0.0300589 W

*****************************************************************************************
Core:
      Area = 18.7685 mm^2
      Peak Dynamic = 32.6708 W
      Subthreshold Leakage = 9.45886 W
      Gate Leakage = 0.410117 W
      Runtime Dynamic = 3.43014 W

      Instruction Fetch Unit:
        Area = 0.373716 mm^2
        Peak Dynamic = 0.852367 W
        Subthreshold Leakage = 0.180795 W
        Gate Leakage = 0.00860996 W
        Runtime Dynamic = 0.14654 W

          Instruction Cache:
            Area = 0.031153 mm^2
            Peak Dynamic = 0.0582816 W
            Subthreshold Leakage = 0.019862 W
            Gate Leakage = 0.000772322 W
            Runtime Dynamic = 1.04348e-11 W

          Branch Target Buffer:
            Area = 0.218343 mm^2
            Peak Dynamic = 0.0267203 W
            Subthreshold Leakage = 0.0792175 W
            Gate Leakage = 0.00258463 W
            Runtime Dynamic = 1.55963e-11 W

          Branch Predictor:
            Area = 0.0695659 mm^2
            Peak Dynamic = 0.0221683 W
            Subthreshold Leakage = 0.0333239 W
            Gate Leakage = 0.000813825 W
            Runtime Dynamic = 0.00247387 W

              Global Predictor:
                Area = 0.0246062 mm^2
                Peak Dynamic = 0.00680391 W
                Subthreshold Leakage = 0.0119463 W
                Gate Leakage = 0.000281893 W
                Runtime Dynamic = 0.000823993 W

              Local Predictor:
              L1_Local Predictor:
                Area = 0.0116952 mm^2
                Peak Dynamic = 0.00411002 W
                Subthreshold Leakage = 0.00621882 W
                Gate Leakage = 0.000155927 W
                Runtime Dynamic = 0.000519294 W

              L2_Local Predictor:
                Area = 0.00590338 mm^2
                Peak Dynamic = 0.0020446 W
                Subthreshold Leakage = 0.0027348 W
                Gate Leakage = 7.97825e-05 W
                Runtime Dynamic = 0.000258305 W

              Chooser:
                Area = 0.0246062 mm^2
                Peak Dynamic = 0.00680391 W
                Subthreshold Leakage = 0.0119463 W
                Gate Leakage = 0.000281893 W
                Runtime Dynamic = 0.000823993 W

              RAS:
                Area = 0.00275494 mm^2
                Peak Dynamic = 0.00240583 W
                Subthreshold Leakage = 0.000477777 W
                Gate Leakage = 1.43306e-05 W
                Runtime Dynamic = 4.82817e-05 W

          Instruction Buffer:
            Area = 0.012681 mm^2
            Peak Dynamic = 0.333876 W
            Subthreshold Leakage = 0.00241792 W
            Gate Leakage = 7.7627e-05 W
            Runtime Dynamic = 0.0741552 W

          Instruction Decoder:
            Area = 0.0121409 mm^2
            Peak Dynamic = 0.314767 W
            Subthreshold Leakage = 0.00447554 W
            Gate Leakage = 0.00013906 W
            Runtime Dynamic = 0.069911 W

      Renaming Unit:
        Area = 4.07069 mm^2
        Peak Dynamic = 20.6475 W
        Subthreshold Leakage = 1.04744 W
        Gate Leakage = 0.0625803 W
        Runtime Dynamic = 1.68338 W

          Int Front End RAT:
            Area = 2.39226 mm^2
            Peak Dynamic = 13.7118 W
            Subthreshold Leakage = 0.602615 W
            Gate Leakage = 0.0343763 W
            Runtime Dynamic = 1.63374 W

          FP Front End RAT:
            Area = 1.41952 mm^2
            Peak Dynamic = 6.70218 W
            Subthreshold Leakage = 0.394292 W
            Gate Leakage = 0.0237137 W
            Runtime Dynamic = 0.0407467 W

          Free List:
            Area = 0.116512 mm^2
            Peak Dynamic = 0.0548029 W
            Subthreshold Leakage = 0.00408189 W
            Gate Leakage = 0.00011355 W
            Runtime Dynamic = 0.00860923 W

          Int Retire RAT: 
            Area = 0.0189764 mm^2
            Peak Dynamic = 0.0211238 W
            Subthreshold Leakage = 0.000839329 W
            Gate Leakage = 3.11248e-05 W
            Runtime Dynamic = 0 W

          FP Retire RAT:
            Area = 0.0111561 mm^2
            Peak Dynamic = 0.013167 W
            Subthreshold Leakage = 0.00065932 W
            Gate Leakage = 2.49388e-05 W
            Runtime Dynamic = 0 W

          FP Free List:
            Area = 0.0824369 mm^2
            Peak Dynamic = 0.0478719 W
            Subthreshold Leakage = 0.00345646 W
            Gate Leakage = 9.82089e-05 W
            Runtime Dynamic = 0.000283909 W

      Load Store Unit:
        Area = 0.875325 mm^2
        Peak Dynamic = 1.31008 W
        Subthreshold Leakage = 0.307052 W
        Gate Leakage = 0.0148495 W
        Runtime Dynamic = 0.241149 W

          Data Cache:
            Area = 0.231404 mm^2
            Peak Dynamic = 0.403485 W
            Subthreshold Leakage = 0.101848 W
            Gate Leakage = 0.00404542 W
            Runtime Dynamic = 2.45033e-11 W

          LoadQ:
            Area = 0.268613 mm^2
            Peak Dynamic = 0.40502 W
            Subthreshold Leakage = 0.0818531 W
            Gate Leakage = 0.00329078 W
            Runtime Dynamic = 0.080383 W

          StoreQ:
            Area = 0.268613 mm^2
            Peak Dynamic = 0.40502 W
            Subthreshold Leakage = 0.0818531 W
            Gate Leakage = 0.00329078 W
            Runtime Dynamic = 0.160766 W

      Memory Management Unit:
        Area = 0.218493 mm^2
        Peak Dynamic = 0.213214 W
        Subthreshold Leakage = 0.099136 W
        Gate Leakage = 0.00647838 W
        Runtime Dynamic = 0.00300919 W

          Itlb:
            Area = 0.0224248 mm^2
            Peak Dynamic = 0.0148392 W
            Subthreshold Leakage = 0.00889002 W
            Gate Leakage = 0.000350037 W
            Runtime Dynamic = 0.00300919 W

          Dtlb:
            Area = 0.166236 mm^2
            Peak Dynamic = 0.101821 W
            Subthreshold Leakage = 0.0487475 W
            Gate Leakage = 0.00190585 W
            Runtime Dynamic = 1.06709e-11 W

      Execution Unit:
        Area = 11.0862 mm^2
        Peak Dynamic = 9.64771 W
        Subthreshold Leakage = 5.74786 W
        Gate Leakage = 0.233639 W
        Runtime Dynamic = 1.35606 W

          Register Files:
            Area = 2.26478 mm^2
            Peak Dynamic = 2.66097 W
            Subthreshold Leakage = 0.113345 W
            Gate Leakage = 0.00360427 W
            Runtime Dynamic = 0.190134 W

              Integer RF:
                Area = 1.13239 mm^2
                Peak Dynamic = 1.52055 W
                Subthreshold Leakage = 0.0566724 W
                Gate Leakage = 0.00180213 W
                Runtime Dynamic = 0.185742 W

              Floating Point RF:
                Area = 1.13239 mm^2
                Peak Dynamic = 1.14041 W
                Subthreshold Leakage = 0.0566724 W
                Gate Leakage = 0.00180213 W
                Runtime Dynamic = 0.00439146 W

          Instruction Scheduler:
            Area = 0.752987 mm^2
            Peak Dynamic = 1.37144 W
            Subthreshold Leakage = 0.103893 W
            Gate Leakage = 0.00387543 W
            Runtime Dynamic = 0.146711 W

              Instruction Window:
                Area = 0.120064 mm^2
                Peak Dynamic = 0.334445 W
                Subthreshold Leakage = 0.0219608 W
                Gate Leakage = 0.000910492 W
                Runtime Dynamic = 0.139975 W

              FP Instruction Window:
                Area = 0.233305 mm^2
                Peak Dynamic = 0.469621 W
                Subthreshold Leakage = 0.0563153 W
                Gate Leakage = 0.00227521 W
                Runtime Dynamic = 0.00632492 W

              ROB:
                Area = 0.399618 mm^2
                Peak Dynamic = 0.567376 W
                Subthreshold Leakage = 0.0256169 W
                Gate Leakage = 0.000689732 W
                Runtime Dynamic = 0.000411363 W

          Integer ALUs (Count: 8 ):
            Area = 0.439479 mm^2
            Peak Dynamic = 0.926622 W
            Subthreshold Leakage = 0.851296 W
            Gate Leakage = 0.0344197 W
            Runtime Dynamic = 0.252906 W

          Floating Point Units (FPUs) (Count: 6 ):
            Area = 7.06712 mm^2
            Peak Dynamic = 2.12662 W
            Subthreshold Leakage = 3.42235 W
            Gate Leakage = 0.138373 W
            Runtime Dynamic = 0.188016 W

          Complex ALUs (Mul/Div) (Count: 3 ):
            Area = 0.494414 mm^2
            Peak Dynamic = 0.229349 W
            Subthreshold Leakage = 0.957708 W
            Gate Leakage = 0.0387221 W
            Runtime Dynamic = 0.119379 W

          Results Broadcast Bus:
            Area Overhead = 0.0375694 mm^2
            Peak Dynamic = 2.23617 W
            Subthreshold Leakage = 0.257769 W
            Gate Leakage = 0.0104221 W
            Runtime Dynamic = 0.458918 W

*****************************************************************************************
Core:
      Area = 18.7685 mm^2
      Peak Dynamic = 32.6708 W
      Subthreshold Leakage = 9.45886 W
      Gate Leakage = 0.410117 W
      Runtime Dynamic = 0.335681 W

      Instruction Fetch Unit:
        Area = 0.373716 mm^2
        Peak Dynamic = 0.852367 W
        Subthreshold Leakage = 0.180795 W
        Gate Leakage = 0.00860996 W
        Runtime Dynamic = 7.64804e-05 W

          Instruction Cache:
            Area = 0.031153 mm^2
            Peak Dynamic = 0.0582816 W
            Subthreshold Leakage = 0.019862 W
            Gate Leakage = 0.000772322 W
            Runtime Dynamic = 1.04348e-11 W

          Branch Target Buffer:
            Area = 0.218343 mm^2
            Peak Dynamic = 0.0267203 W
            Subthreshold Leakage = 0.0792175 W
            Gate Leakage = 0.00258463 W
            Runtime Dynamic = 1.55963e-11 W

          Branch Predictor:
            Area = 0.0695659 mm^2
            Peak Dynamic = 0.0221683 W
            Subthreshold Leakage = 0.0333239 W
            Gate Leakage = 0.000813825 W
            Runtime Dynamic = 3.61105e-06 W

              Global Predictor:
                Area = 0.0246062 mm^2
                Peak Dynamic = 0.00680391 W
                Subthreshold Leakage = 0.0119463 W
                Gate Leakage = 0.000281893 W
                Runtime Dynamic = 1.19614e-06 W

              Local Predictor:
              L1_Local Predictor:
                Area = 0.0116952 mm^2
                Peak Dynamic = 0.00411002 W
                Subthreshold Leakage = 0.00621882 W
                Gate Leakage = 0.000155927 W
                Runtime Dynamic = 7.46777e-07 W

              L2_Local Predictor:
                Area = 0.00590338 mm^2
                Peak Dynamic = 0.0020446 W
                Subthreshold Leakage = 0.0027348 W
                Gate Leakage = 7.97825e-05 W
                Runtime Dynamic = 3.71467e-07 W

              Chooser:
                Area = 0.0246062 mm^2
                Peak Dynamic = 0.00680391 W
                Subthreshold Leakage = 0.0119463 W
                Gate Leakage = 0.000281893 W
                Runtime Dynamic = 1.19614e-06 W

              RAS:
                Area = 0.00275494 mm^2
                Peak Dynamic = 0.00240583 W
                Subthreshold Leakage = 0.000477777 W
                Gate Leakage = 1.43306e-05 W
                Runtime Dynamic = 1.00524e-07 W

          Instruction Buffer:
            Area = 0.012681 mm^2
            Peak Dynamic = 0.333876 W
            Subthreshold Leakage = 0.00241792 W
            Gate Leakage = 7.7627e-05 W
            Runtime Dynamic = 3.7508e-05 W

          Instruction Decoder:
            Area = 0.0121409 mm^2
            Peak Dynamic = 0.314767 W
            Subthreshold Leakage = 0.00447554 W
            Gate Leakage = 0.00013906 W
            Runtime Dynamic = 3.53613e-05 W

      Renaming Unit:
        Area = 4.07069 mm^2
        Peak Dynamic = 20.6475 W
        Subthreshold Leakage = 1.04744 W
        Gate Leakage = 0.0625803 W
        Runtime Dynamic = 0.00078986 W

          Int Front End RAT:
            Area = 2.39226 mm^2
            Peak Dynamic = 13.7118 W
            Subthreshold Leakage = 0.602615 W
            Gate Leakage = 0.0343763 W
            Runtime Dynamic = 0.000785411 W

          FP Front End RAT:
            Area = 1.41952 mm^2
            Peak Dynamic = 6.70218 W
            Subthreshold Leakage = 0.394292 W
            Gate Leakage = 0.0237137 W
            Runtime Dynamic = 3.08254e-07 W

          Free List:
            Area = 0.116512 mm^2
            Peak Dynamic = 0.0548029 W
            Subthreshold Leakage = 0.00408189 W
            Gate Leakage = 0.00011355 W
            Runtime Dynamic = 4.13884e-06 W

          Int Retire RAT: 
            Area = 0.0189764 mm^2
            Peak Dynamic = 0.0211238 W
            Subthreshold Leakage = 0.000839329 W
            Gate Leakage = 3.11248e-05 W
            Runtime Dynamic = 0 W

          FP Retire RAT:
            Area = 0.0111561 mm^2
            Peak Dynamic = 0.013167 W
            Subthreshold Leakage = 0.00065932 W
            Gate Leakage = 2.49388e-05 W
            Runtime Dynamic = 0 W

          FP Free List:
            Area = 0.0824369 mm^2
            Peak Dynamic = 0.0478719 W
            Subthreshold Leakage = 0.00345646 W
            Gate Leakage = 9.82089e-05 W
            Runtime Dynamic = 2.1478e-09 W

      Load Store Unit:
        Area = 0.875325 mm^2
        Peak Dynamic = 1.31008 W
        Subthreshold Leakage = 0.307052 W
        Gate Leakage = 0.0148495 W
        Runtime Dynamic = 0.00013841 W

          Data Cache:
            Area = 0.231404 mm^2
            Peak Dynamic = 0.403485 W
            Subthreshold Leakage = 0.101848 W
            Gate Leakage = 0.00404542 W
            Runtime Dynamic = 2.45033e-11 W

          LoadQ:
            Area = 0.268613 mm^2
            Peak Dynamic = 0.40502 W
            Subthreshold Leakage = 0.0818531 W
            Gate Leakage = 0.00329078 W
            Runtime Dynamic = 4.61365e-05 W

          StoreQ:
            Area = 0.268613 mm^2
            Peak Dynamic = 0.40502 W
            Subthreshold Leakage = 0.0818531 W
            Gate Leakage = 0.00329078 W
            Runtime Dynamic = 9.2273e-05 W

      Memory Management Unit:
[...]
  Device Type= ITRS high performance device type
    Area = 0.0389605 mm^2
    Peak Dynamic = 0.114831 W
    Subthreshold Leakage = 0.0224928 W
    Gate Leakage = 0.000909432 W
    Runtime Dynamic = 0 W

  Total MCs: 1 Memory Controllers 
  Device Type= ITRS high performance device type
    Area = 0.271054 mm^2
    Peak Dynamic = 0.299952 W
    Subthreshold Leakage = 0.0388043 W
    Gate Leakage = 0.00183315 W
    Runtime Dynamic = 0.0300116 W

*****************************************************************************************
Core:
      Area = 18.7685 mm^2
      Peak Dynamic = 32.6708 W
      Subthreshold Leakage = 9.45886 W
      Gate Leakage = 0.410117 W
      Runtime Dynamic = 4.39205 W

      Instruction Fetch Unit:
        Area = 0.373716 mm^2
        Peak Dynamic = 0.852367 W
        Subthreshold Leakage = 0.180795 W
        Gate Leakage = 0.00860996 W
        Runtime Dynamic = 0.19491 W

          Instruction Cache:
            Area = 0.031153 mm^2
            Peak Dynamic = 0.0582816 W
            Subthreshold Leakage = 0.019862 W
            Gate Leakage = 0.000772322 W
            Runtime Dynamic = 5.88843e-13 W

          Branch Target Buffer:
            Area = 0.218343 mm^2
            Peak Dynamic = 0.0267203 W
            Subthreshold Leakage = 0.0792175 W
            Gate Leakage = 0.00258463 W
            Runtime Dynamic = 8.80106e-13 W

          Branch Predictor:
            Area = 0.0695659 mm^2
            Peak Dynamic = 0.0221683 W
            Subthreshold Leakage = 0.0333239 W
            Gate Leakage = 0.000813825 W
            Runtime Dynamic = 0.00257892 W

              Global Predictor:
                Area = 0.0246062 mm^2
                Peak Dynamic = 0.00680391 W
                Subthreshold Leakage = 0.0119463 W
                Gate Leakage = 0.000281893 W
                Runtime Dynamic = 0.000861182 W

              Local Predictor:
              L1_Local Predictor:
                Area = 0.0116952 mm^2
                Peak Dynamic = 0.00411002 W
                Subthreshold Leakage = 0.00621882 W
                Gate Leakage = 0.000155927 W
                Runtime Dynamic = 0.000541557 W

              L2_Local Predictor:
                Area = 0.00590338 mm^2
                Peak Dynamic = 0.0020446 W
                Subthreshold Leakage = 0.0027348 W
                Gate Leakage = 7.97825e-05 W
                Runtime Dynamic = 0.000269381 W

              Chooser:
                Area = 0.0246062 mm^2
                Peak Dynamic = 0.00680391 W
                Subthreshold Leakage = 0.0119463 W
                Gate Leakage = 0.000281893 W
                Runtime Dynamic = 0.000861182 W

              RAS:
                Area = 0.00275494 mm^2
                Peak Dynamic = 0.00240583 W
                Subthreshold Leakage = 0.000477777 W
                Gate Leakage = 1.43306e-05 W
                Runtime Dynamic = 4.56212e-05 W

          Instruction Buffer:
            Area = 0.012681 mm^2
            Peak Dynamic = 0.333876 W
            Subthreshold Leakage = 0.00241792 W
            Gate Leakage = 7.7627e-05 W
            Runtime Dynamic = 0.0989988 W

          Instruction Decoder:
            Area = 0.0121409 mm^2
            Peak Dynamic = 0.314767 W
            Subthreshold Leakage = 0.00447554 W
            Gate Leakage = 0.00013906 W
            Runtime Dynamic = 0.0933327 W

      Renaming Unit:
        Area = 4.07069 mm^2
        Peak Dynamic = 20.6475 W
        Subthreshold Leakage = 1.04744 W
        Gate Leakage = 0.0625803 W
        Runtime Dynamic = 2.23416 W

          Int Front End RAT:
            Area = 2.39226 mm^2
            Peak Dynamic = 13.7118 W
            Subthreshold Leakage = 0.602615 W
            Gate Leakage = 0.0343763 W
            Runtime Dynamic = 2.18434 W

          FP Front End RAT:
            Area = 1.41952 mm^2
            Peak Dynamic = 6.70218 W
            Subthreshold Leakage = 0.394292 W
            Gate Leakage = 0.0237137 W
            Runtime Dynamic = 0.0380431 W

          Free List:
            Area = 0.116512 mm^2
            Peak Dynamic = 0.0548029 W
            Subthreshold Leakage = 0.00408189 W
            Gate Leakage = 0.00011355 W
            Runtime Dynamic = 0.0115107 W

          Int Retire RAT: 
            Area = 0.0189764 mm^2
            Peak Dynamic = 0.0211238 W
            Subthreshold Leakage = 0.000839329 W
            Gate Leakage = 3.11248e-05 W
            Runtime Dynamic = 0 W

          FP Retire RAT:
            Area = 0.0111561 mm^2
            Peak Dynamic = 0.013167 W
            Subthreshold Leakage = 0.00065932 W
            Gate Leakage = 2.49388e-05 W
            Runtime Dynamic = 0 W

          FP Free List:
            Area = 0.0824369 mm^2
            Peak Dynamic = 0.0478719 W
            Subthreshold Leakage = 0.00345646 W
            Gate Leakage = 9.82089e-05 W
            Runtime Dynamic = 0.000265071 W

      Load Store Unit:
        Area = 0.875325 mm^2
        Peak Dynamic = 1.31008 W
        Subthreshold Leakage = 0.307052 W
        Gate Leakage = 0.0148495 W
        Runtime Dynamic = 0.272401 W

          Data Cache:
            Area = 0.231404 mm^2
            Peak Dynamic = 0.403485 W
            Subthreshold Leakage = 0.101848 W
            Gate Leakage = 0.00404542 W
            Runtime Dynamic = 1.38274e-12 W

          LoadQ:
            Area = 0.268613 mm^2
            Peak Dynamic = 0.40502 W
            Subthreshold Leakage = 0.0818531 W
            Gate Leakage = 0.00329078 W
            Runtime Dynamic = 0.0908004 W

          StoreQ:
            Area = 0.268613 mm^2
            Peak Dynamic = 0.40502 W
            Subthreshold Leakage = 0.0818531 W
            Gate Leakage = 0.00329078 W
            Runtime Dynamic = 0.181601 W

      Memory Management Unit:
        Area = 0.218493 mm^2
        Peak Dynamic = 0.213214 W
        Subthreshold Leakage = 0.099136 W
        Gate Leakage = 0.00647838 W
        Runtime Dynamic = 0.00346492 W

          Itlb:
            Area = 0.0224248 mm^2
            Peak Dynamic = 0.0148392 W
            Subthreshold Leakage = 0.00889002 W
            Gate Leakage = 0.000350037 W
            Runtime Dynamic = 0.00346492 W

          Dtlb:
            Area = 0.166236 mm^2
            Peak Dynamic = 0.101821 W
            Subthreshold Leakage = 0.0487475 W
            Gate Leakage = 0.00190585 W
            Runtime Dynamic = 6.02167e-13 W

      Execution Unit:
        Area = 11.0862 mm^2
        Peak Dynamic = 9.64771 W
        Subthreshold Leakage = 5.74786 W
        Gate Leakage = 0.233639 W
        Runtime Dynamic = 1.68711 W

          Register Files:
            Area = 2.26478 mm^2
            Peak Dynamic = 2.66097 W
            Subthreshold Leakage = 0.113345 W
            Gate Leakage = 0.00360427 W
            Runtime Dynamic = 0.259422 W

              Integer RF:
                Area = 1.13239 mm^2
                Peak Dynamic = 1.52055 W
                Subthreshold Leakage = 0.0566724 W
                Gate Leakage = 0.00180213 W
                Runtime Dynamic = 0.25531 W

              Floating Point RF:
                Area = 1.13239 mm^2
                Peak Dynamic = 1.14041 W
                Subthreshold Leakage = 0.0566724 W
                Gate Leakage = 0.00180213 W
                Runtime Dynamic = 0.004112 W

          Instruction Scheduler:
            Area = 0.752987 mm^2
            Peak Dynamic = 1.37144 W
            Subthreshold Leakage = 0.103893 W
            Gate Leakage = 0.00387543 W
            Runtime Dynamic = 0.186461 W

              Instruction Window:
                Area = 0.120064 mm^2
                Peak Dynamic = 0.334445 W
                Subthreshold Leakage = 0.0219608 W
                Gate Leakage = 0.000910492 W
                Runtime Dynamic = 0.180547 W

              FP Instruction Window:
                Area = 0.233305 mm^2
                Peak Dynamic = 0.469621 W
                Subthreshold Leakage = 0.0563153 W
                Gate Leakage = 0.00227521 W
                Runtime Dynamic = 0.00589031 W

              ROB:
                Area = 0.399618 mm^2
                Peak Dynamic = 0.567376 W
                Subthreshold Leakage = 0.0256169 W
                Gate Leakage = 0.000689732 W
                Runtime Dynamic = 2.32135e-05 W

          Integer ALUs (Count: 8 ):
            Area = 0.439479 mm^2
            Peak Dynamic = 0.926622 W
            Subthreshold Leakage = 0.851296 W
            Gate Leakage = 0.0344197 W
            Runtime Dynamic = 0.320968 W

          Floating Point Units (FPUs) (Count: 6 ):
            Area = 7.06712 mm^2
            Peak Dynamic = 2.12662 W
            Subthreshold Leakage = 3.42235 W
            Gate Leakage = 0.138373 W
            Runtime Dynamic = 0.186502 W

          Complex ALUs (Mul/Div) (Count: 3 ):
            Area = 0.494414 mm^2
            Peak Dynamic = 0.229349 W
            Subthreshold Leakage = 0.957708 W
            Gate Leakage = 0.0387221 W
            Runtime Dynamic = 0.126013 W

          Results Broadcast Bus:
            Area Overhead = 0.0375694 mm^2
            Peak Dynamic = 2.23617 W
            Subthreshold Leakage = 0.257769 W
            Gate Leakage = 0.0104221 W
            Runtime Dynamic = 0.607747 W

*****************************************************************************************
Core:
      Area = 18.7685 mm^2
      Peak Dynamic = 32.6708 W
      Subthreshold Leakage = 9.45886 W
      Gate Leakage = 0.410117 W
      Runtime Dynamic = 0.335107 W

      Instruction Fetch Unit:
        Area = 0.373716 mm^2
        Peak Dynamic = 0.852367 W
        Subthreshold Leakage = 0.180795 W
        Gate Leakage = 0.00860996 W
        Runtime Dynamic = 6.8204e-05 W

          Instruction Cache:
            Area = 0.031153 mm^2
            Peak Dynamic = 0.0582816 W
            Subthreshold Leakage = 0.019862 W
            Gate Leakage = 0.000772322 W
            Runtime Dynamic = 5.88843e-13 W

          Branch Target Buffer:
            Area = 0.218343 mm^2
            Peak Dynamic = 0.0267203 W
            Subthreshold Leakage = 0.0792175 W
            Gate Leakage = 0.00258463 W
            Runtime Dynamic = 8.80106e-13 W

          Branch Predictor:
            Area = 0.0695659 mm^2
            Peak Dynamic = 0.0221683 W
            Subthreshold Leakage = 0.0333239 W
            Gate Leakage = 0.000813825 W
            Runtime Dynamic = 3.98048e-06 W

              Global Predictor:
                Area = 0.0246062 mm^2
                Peak Dynamic = 0.00680391 W
                Subthreshold Leakage = 0.0119463 W
                Gate Leakage = 0.000281893 W
                Runtime Dynamic = 1.32642e-06 W

              Local Predictor:
              L1_Local Predictor:
                Area = 0.0116952 mm^2
                Peak Dynamic = 0.00411002 W
                Subthreshold Leakage = 0.00621882 W
                Gate Leakage = 0.000155927 W
                Runtime Dynamic = 8.25971e-07 W

              L2_Local Predictor:
                Area = 0.00590338 mm^2
                Peak Dynamic = 0.0020446 W
                Subthreshold Leakage = 0.0027348 W
                Gate Leakage = 7.97825e-05 W
                Runtime Dynamic = 4.10863e-07 W

              Chooser:
                Area = 0.0246062 mm^2
                Peak Dynamic = 0.00680391 W
                Subthreshold Leakage = 0.0119463 W
                Gate Leakage = 0.000281893 W
                Runtime Dynamic = 1.32642e-06 W

              RAS:
                Area = 0.00275494 mm^2
                Peak Dynamic = 0.00240583 W
                Subthreshold Leakage = 0.000477777 W
                Gate Leakage = 1.43306e-05 W
                Runtime Dynamic = 9.08006e-08 W

          Instruction Buffer:
            Area = 0.012681 mm^2
            Peak Dynamic = 0.333876 W
            Subthreshold Leakage = 0.00241792 W
            Gate Leakage = 7.7627e-05 W
            Runtime Dynamic = 3.30578e-05 W

          Instruction Decoder:
            Area = 0.0121409 mm^2
            Peak Dynamic = 0.314767 W
            Subthreshold Leakage = 0.00447554 W
            Gate Leakage = 0.00013906 W
            Runtime Dynamic = 3.11657e-05 W

      Renaming Unit:
        Area = 4.07069 mm^2
        Peak Dynamic = 20.6475 W
        Subthreshold Leakage = 1.04744 W
        Gate Leakage = 0.0625803 W
        Runtime Dynamic = 0.000692485 W

          Int Front End RAT:
            Area = 2.39226 mm^2
            Peak Dynamic = 13.7118 W
            Subthreshold Leakage = 0.602615 W
            Gate Leakage = 0.0343763 W
            Runtime Dynamic = 0.000688749 W

          FP Front End RAT:
            Area = 1.41952 mm^2
            Peak Dynamic = 6.70218 W
            Subthreshold Leakage = 0.394292 W
            Gate Leakage = 0.0237137 W
            Runtime Dynamic = 1.05521e-07 W

          Free List:
            Area = 0.116512 mm^2
            Peak Dynamic = 0.0548029 W
            Subthreshold Leakage = 0.00408189 W
            Gate Leakage = 0.00011355 W
            Runtime Dynamic = 3.62947e-06 W

          Int Retire RAT: 
            Area = 0.0189764 mm^2
            Peak Dynamic = 0.0211238 W
            Subthreshold Leakage = 0.000839329 W
            Gate Leakage = 3.11248e-05 W
            Runtime Dynamic = 0 W

          FP Retire RAT:
            Area = 0.0111561 mm^2
            Peak Dynamic = 0.013167 W
            Subthreshold Leakage = 0.00065932 W
            Gate Leakage = 2.49388e-05 W
            Runtime Dynamic = 0 W

          FP Free List:
            Area = 0.0824369 mm^2
            Peak Dynamic = 0.0478719 W
            Subthreshold Leakage = 0.00345646 W
            Gate Leakage = 9.82089e-05 W
            Runtime Dynamic = 7.35233e-10 W

      Load Store Unit:
        Area = 0.875325 mm^2
        Peak Dynamic = 1.31008 W
        Subthreshold Leakage = 0.307052 W
        Gate Leakage = 0.0148495 W
        Runtime Dynamic = 0.000122004 W

          Data Cache:
            Area = 0.231404 mm^2
            Peak Dynamic = 0.403485 W
            Subthreshold Leakage = 0.101848 W
            Gate Leakage = 0.00404542 W
            Runtime Dynamic = 1.38274e-12 W

          LoadQ:
            Area = 0.268613 mm^2
            Peak Dynamic = 0.40502 W
            Subthreshold Leakage = 0.0818531 W
            Gate Leakage = 0.00329078 W
            Runtime Dynamic = 4.06679e-05 W

          StoreQ:
            Area = 0.268613 mm^2
            Peak Dynamic = 0.40502 W
            Subthreshold Leakage = 0.0818531 W
            Gate Leakage = 0.00329078 W
            Runtime Dynamic = 8.13358e-05 W

      Memory Management Unit:
        Area = 0.218493 mm^2
        Peak Dynamic = 0.213214 W
        Subthreshold Leakage = 0.099136 W
        Gate Leakage = 0.00647838 W
        Runtime Dynamic = 5.78536e-07 W

          Itlb:
            Area = 0.0224248 mm^2
            Peak Dynamic = 0.0148392 W
            Subthreshold Leakage = 0.00889002 W
            Gate Leakage = 0.000350037 W
            Runtime Dynamic = 5.78534e-07 W

          Dtlb:
            Area = 0.166236 mm^2
            Peak Dynamic = 0.101821 W
            Subthreshold Leakage = 0.0487475 W
            Gate Leakage = 0.00190585 W
            Runtime Dynamic = 6.02167e-13 W

      Execution Unit:
        Area = 11.0862 mm^2
        Peak Dynamic = 9.64771 W
        Subthreshold Leakage = 5.74786 W
        Gate Leakage = 0.233639 W
        Runtime Dynamic = 0.334223 W

          Register Files:
            Area = 2.26478 mm^2
            Peak Dynamic = 2.66097 W
            Subthreshold Leakage = 0.113345 W
            Gate Leakage = 0.00360427 W
            Runtime Dynamic = 7.64002e-05 W

              Integer RF:
                Area = 1.13239 mm^2
                Peak Dynamic = 1.52055 W
                Subthreshold Leakage = 0.0566724 W
                Gate Leakage = 0.00180213 W
                Runtime Dynamic = 7.63913e-05 W

              Floating Point RF:
                Area = 1.13239 mm^2
                Peak Dynamic = 1.14041 W
                Subthreshold Leakage = 0.0566724 W
                Gate Leakage = 0.00180213 W
                Runtime Dynamic = 8.8854e-09 W

          Instruction Scheduler:
            Area = 0.752987 mm^2
            Peak Dynamic = 1.37144 W
            Subthreshold Leakage = 0.103893 W
            Gate Leakage = 0.00387543 W
            Runtime Dynamic = 0.000108698 W

              Instruction Window:
                Area = 0.120064 mm^2
                Peak Dynamic = 0.334445 W
                Subthreshold Leakage = 0.0219608 W
                Gate Leakage = 0.000910492 W
                Runtime Dynamic = 8.5467e-05 W

              FP Instruction Window:
                Area = 0.233305 mm^2
                Peak Dynamic = 0.469621 W
                Subthreshold Leakage = 0.0563153 W
                Gate Leakage = 0.00227521 W
                Runtime Dynamic = 1.73192e-08 W

              ROB:
                Area = 0.399618 mm^2
                Peak Dynamic = 0.567376 W
                Subthreshold Leakage = 0.0256169 W
                Gate Leakage = 0.000689732 W
                Runtime Dynamic = 2.32135e-05 W

          Integer ALUs (Count: 8 ):
            Area = 0.439479 mm^2
            Peak Dynamic = 0.926622 W
            Subthreshold Leakage = 0.851296 W
            Gate Leakage = 0.0344197 W
            Runtime Dynamic = 0.055718 W

          Floating Point Units (FPUs) (Count: 6 ):
            Area = 7.06712 mm^2
            Peak Dynamic = 2.12662 W
            Subthreshold Leakage = 3.42235 W
            Gate Leakage = 0.138373 W
            Runtime Dynamic = 0.166873 W

          Complex ALUs (Mul/Div) (Count: 3 ):
            Area = 0.494414 mm^2
            Peak Dynamic = 0.229349 W
            Subthreshold Leakage = 0.957708 W
            Gate Leakage = 0.0387221 W
            Runtime Dynamic = 0.11125 W

          Results Broadcast Bus:
            Area Overhead = 0.0375694 mm^2
            Peak Dynamic = 2.23617 W
            Subthreshold Leakage = 0.257769 W
            Gate Leakage = 0.0104221 W
            Runtime Dynamic = 0.000197185 W

*****************************************************************************************
L2
      Area = 8.27164 mm^2
      Peak Dynamic = 0.112651 W
      Subthreshold Leakage = 5.291 W
      Gate Leakage = 0.138421 W
      Runtime Dynamic = 0.01339 W

*****************************************************************************************
First Level Directory
      Area = 0.230936 mm^2
      Peak Dynamic = 0.0100361 W
      Subthreshold Leakage = 0.160847 W
      Gate Leakage = 0.00488567 W
      Runtime Dynamic = 0 W

*****************************************************************************************
Memory Controller:
      Area = 0.271054 mm^2
      Peak Dynamic = 0.299952 W
      Subthreshold Leakage = 0.0388043 W
      Gate Leakage = 0.00183315 W
      Runtime Dynamic = 0.0300116 W

      Front End Engine:
        Area = 0.234699 mm^2
        Peak Dynamic = 0.18131 W
        Subthreshold Leakage = 0.0348135 W
        Gate Leakage = 0.00138987 W
        Runtime Dynamic = 0.0181359 W

      Transaction Engine:
        Area = 0.036355 mm^2
        Peak Dynamic = 0.118642 W
        Subthreshold Leakage = 0.00399073 W
        Gate Leakage = 0.000443275 W
        Runtime Dynamic = 0.0118757 W

*****************************************************************************************
BUSES
      Area = 0.0389605 mm^2
      Peak Dynamic = 0.114831 W
      Subthreshold Leakage = 0.0224928 W
      Gate Leakage = 0.000909432 W
      Runtime Dynamic = 0 W

      Bus: 
        Area = 0.0389605 mm^2
        Peak Dynamic = 0.114831 W
        Subthreshold Leakage = 0.0224928 W
        Gate Leakage = 0.000909432 W
        Runtime Dynamic = 0 W

*****************************************************************************************
