McPAT (version 1.0 of Aug, 2013) is computing the target processor...
 

McPAT (version 1.0 of Aug, 2013) results  (current print level is 5)
*****************************************************************************************
  Technology 32 nm
  Interconnect metal projection= aggressive interconnect technology projection
  Core clock Rate(MHz) 2000

*****************************************************************************************
Processor: 
  Area = 46.4572 mm^2
  Peak Power = 91.2667 W
  Total Leakage = 25.3915 W
  Peak Dynamic = 65.8752 W
  Subthreshold Leakage = 24.4254 W
  Gate Leakage = 0.966125 W
  Runtime Dynamic = 0.731511 W

  Total Cores: 2 cores 
  Device Type= ITRS high performance device type
    Area = 37.6445 mm^2
    Peak Dynamic = 65.3376 W
    Subthreshold Leakage = 18.9122 W
    Gate Leakage = 0.820075 W
    Runtime Dynamic = 0.700703 W

  Total L2s: 
  Device Type= ITRS high performance device type
    Area = 8.27164 mm^2
    Peak Dynamic = 0.112651 W
    Subthreshold Leakage = 5.291 W
    Gate Leakage = 0.138421 W
    Runtime Dynamic = 0.000772149 W

  Total First Level Directory: 
  Device Type= ITRS high performance device type
    Area = 0.230936 mm^2
    Peak Dynamic = 0.0100361 W
    Subthreshold Leakage = 0.160847 W
    Gate Leakage = 0.00488567 W
    Runtime Dynamic = 1.75e-11 W

  Total NoCs (Network/Bus): 
  Device Type= ITRS high performance device type
    Area = 0.0390058 mm^2
    Peak Dynamic = 0.114965 W
    Subthreshold Leakage = 0.0225189 W
    Gate Leakage = 0.000910488 W
    Runtime Dynamic = 0 W

  Total MCs: 1 Memory Controllers 
  Device Type= ITRS high performance device type
    Area = 0.271054 mm^2
    Peak Dynamic = 0.299952 W
    Subthreshold Leakage = 0.0388043 W
    Gate Leakage = 0.00183315 W
    Runtime Dynamic = 0.0300364 W

*****************************************************************************************
Core:
      Area = 18.8223 mm^2
      Peak Dynamic = 32.6688 W
      Subthreshold Leakage = 9.45612 W
      Gate Leakage = 0.410037 W
      Runtime Dynamic = 0.3569 W

      Instruction Fetch Unit:
        Area = 0.373716 mm^2
        Peak Dynamic = 0.850323 W
        Subthreshold Leakage = 0.178061 W
        Gate Leakage = 0.00853018 W
        Runtime Dynamic = 0.00112339 W

          Instruction Cache:
            Area = 0.031153 mm^2
            Peak Dynamic = 0.0582816 W
            Subthreshold Leakage = 0.019862 W
            Gate Leakage = 0.000772322 W
            Runtime Dynamic = 1.32803e-11 W

          Branch Target Buffer:
            Area = 0.218343 mm^2
            Peak Dynamic = 0.0267203 W
            Subthreshold Leakage = 0.0792175 W
            Gate Leakage = 0.00258463 W
            Runtime Dynamic = 1.98492e-11 W

          Branch Predictor:
            Area = 0.0695659 mm^2
            Peak Dynamic = 0.0201237 W
            Subthreshold Leakage = 0.0305891 W
            Gate Leakage = 0.000734043 W
            Runtime Dynamic = 5.28205e-05 W

              Global Predictor:
                Area = 0.0246062 mm^2
                Peak Dynamic = 0.00680391 W
                Subthreshold Leakage = 0.0119463 W
                Gate Leakage = 0.000281893 W
                Runtime Dynamic = 1.96163e-05 W

              Local Predictor:
              L1_Local Predictor:
                Area = 0.0116952 mm^2
                Peak Dynamic = 0.00411002 W
                Subthreshold Leakage = 0.00621882 W
                Gate Leakage = 0.000155927 W
                Runtime Dynamic = 1.22586e-05 W

              L2_Local Predictor:
                Area = 0.00590338 mm^2
                Peak Dynamic = 0.0020446 W
                Subthreshold Leakage = 0.0027348 W
                Gate Leakage = 7.97825e-05 W
                Runtime Dynamic = 6.09777e-06 W

              Chooser:
                Area = 0.0246062 mm^2
                Peak Dynamic = 0.00680391 W
                Subthreshold Leakage = 0.0119463 W
                Gate Leakage = 0.000281893 W
                Runtime Dynamic = 1.96163e-05 W

              RAS:
                Area = 0.00275494 mm^2
                Peak Dynamic = 0.00240583 W
                Subthreshold Leakage = 0.000477777 W
                Gate Leakage = 1.43306e-05 W
                Runtime Dynamic = 1.32928e-06 W

          Instruction Buffer:
            Area = 0.012681 mm^2
            Peak Dynamic = 0.333876 W
            Subthreshold Leakage = 0.00241792 W
            Gate Leakage = 7.7627e-05 W
            Runtime Dynamic = 0.000551052 W

          Instruction Decoder:
            Area = 0.0121409 mm^2
            Peak Dynamic = 0.314767 W
            Subthreshold Leakage = 0.00447554 W
            Gate Leakage = 0.00013906 W
            Runtime Dynamic = 0.000519513 W

      Renaming Unit:
        Area = 4.07069 mm^2
        Peak Dynamic = 20.6475 W
        Subthreshold Leakage = 1.04744 W
        Gate Leakage = 0.0625803 W
        Runtime Dynamic = 0.0122844 W

          Int Front End RAT:
            Area = 2.39226 mm^2
            Peak Dynamic = 13.7118 W
            Subthreshold Leakage = 0.602615 W
            Gate Leakage = 0.0343763 W
            Runtime Dynamic = 0.0121923 W

          FP Front End RAT:
            Area = 1.41952 mm^2
            Peak Dynamic = 6.70218 W
            Subthreshold Leakage = 0.394292 W
            Gate Leakage = 0.0237137 W
            Runtime Dynamic = 2.76318e-05 W

          Free List:
            Area = 0.116512 mm^2
            Peak Dynamic = 0.0548029 W
            Subthreshold Leakage = 0.00408189 W
            Gate Leakage = 0.00011355 W
            Runtime Dynamic = 6.42494e-05 W

          Int Retire RAT: 
            Area = 0.0189764 mm^2
            Peak Dynamic = 0.0211238 W
            Subthreshold Leakage = 0.000839329 W
            Gate Leakage = 3.11248e-05 W
            Runtime Dynamic = 0 W

          FP Retire RAT:
            Area = 0.0111561 mm^2
            Peak Dynamic = 0.013167 W
            Subthreshold Leakage = 0.00065932 W
            Gate Leakage = 2.49388e-05 W
            Runtime Dynamic = 0 W

          FP Free List:
            Area = 0.0824369 mm^2
            Peak Dynamic = 0.0478719 W
            Subthreshold Leakage = 0.00345646 W
            Gate Leakage = 9.82089e-05 W
            Runtime Dynamic = 1.92529e-07 W

      Load Store Unit:
        Area = 0.930327 mm^2
        Peak Dynamic = 1.31008 W
        Subthreshold Leakage = 0.307052 W
        Gate Leakage = 0.0148495 W
        Runtime Dynamic = 0.00157402 W

          Data Cache:
            Area = 0.231404 mm^2
            Peak Dynamic = 0.403485 W
            Subthreshold Leakage = 0.101848 W
            Gate Leakage = 0.00404542 W
            Runtime Dynamic = 3.11852e-11 W

          LoadQ:
            Area = 0.268613 mm^2
            Peak Dynamic = 0.40502 W
            Subthreshold Leakage = 0.0818531 W
            Gate Leakage = 0.00329078 W
            Runtime Dynamic = 0.000524674 W

          StoreQ:
            Area = 0.268613 mm^2
            Peak Dynamic = 0.40502 W
            Subthreshold Leakage = 0.0818531 W
            Gate Leakage = 0.00329078 W
            Runtime Dynamic = 0.00104935 W

      Memory Management Unit:
        Area = 0.218493 mm^2
        Peak Dynamic = 0.213214 W
        Subthreshold Leakage = 0.099136 W
        Gate Leakage = 0.00647838 W
        Runtime Dynamic = 3.31069e-06 W

          Itlb:
            Area = 0.0224248 mm^2
            Peak Dynamic = 0.0148392 W
            Subthreshold Leakage = 0.00889002 W
            Gate Leakage = 0.000350037 W
            Runtime Dynamic = 3.31065e-06 W

          Dtlb:
            Area = 0.166236 mm^2
            Peak Dynamic = 0.101821 W
            Subthreshold Leakage = 0.0487475 W
            Gate Leakage = 0.00190585 W
            Runtime Dynamic = 1.35808e-11 W

      Execution Unit:
        Area = 11.085 mm^2
        Peak Dynamic = 9.64771 W
        Subthreshold Leakage = 5.74786 W
        Gate Leakage = 0.233639 W
        Runtime Dynamic = 0.341915 W

          Register Files:
            Area = 2.26478 mm^2
            Peak Dynamic = 2.66097 W
            Subthreshold Leakage = 0.113345 W
            Gate Leakage = 0.00360427 W
            Runtime Dynamic = 0.00133506 W

              Integer RF:
                Area = 1.13239 mm^2
                Peak Dynamic = 1.52055 W
                Subthreshold Leakage = 0.0566724 W
                Gate Leakage = 0.00180213 W
                Runtime Dynamic = 0.00133303 W

              Floating Point RF:
                Area = 1.13239 mm^2
                Peak Dynamic = 1.14041 W
                Subthreshold Leakage = 0.0566724 W
                Gate Leakage = 0.00180213 W
                Runtime Dynamic = 2.03551e-06 W

          Instruction Scheduler:
            Area = 0.752987 mm^2
            Peak Dynamic = 1.37144 W
            Subthreshold Leakage = 0.103893 W
            Gate Leakage = 0.00387543 W
            Runtime Dynamic = 0.00192755 W

              Instruction Window:
                Area = 0.120064 mm^2
                Peak Dynamic = 0.334445 W
                Subthreshold Leakage = 0.0219608 W
                Gate Leakage = 0.000910492 W
                Runtime Dynamic = 0.0013993 W

              FP Instruction Window:
                Area = 0.233305 mm^2
                Peak Dynamic = 0.469621 W
                Subthreshold Leakage = 0.0563153 W
                Gate Leakage = 0.00227521 W
                Runtime Dynamic = 4.7151e-06 W

              ROB:
                Area = 0.399618 mm^2
                Peak Dynamic = 0.567376 W
                Subthreshold Leakage = 0.0256169 W
                Gate Leakage = 0.000689732 W
                Runtime Dynamic = 0.000523538 W

          Integer ALUs (Count: 8 ):
            Area = 0.439479 mm^2
            Peak Dynamic = 0.926622 W
            Subthreshold Leakage = 0.851296 W
            Gate Leakage = 0.0344197 W
            Runtime Dynamic = 0.0571901 W

          Floating Point Units (FPUs) (Count: 6 ):
            Area = 7.06712 mm^2
            Peak Dynamic = 2.12662 W
            Subthreshold Leakage = 3.42235 W
            Gate Leakage = 0.138373 W
            Runtime Dynamic = 0.16689 W

          Complex ALUs (Mul/Div) (Count: 3 ):
            Area = 0.494414 mm^2
            Peak Dynamic = 0.229349 W
            Subthreshold Leakage = 0.957708 W
            Gate Leakage = 0.0387221 W
            Runtime Dynamic = 0.111254 W

          Results Broadcast Bus:
            Area Overhead = 0.0363775 mm^2
            Peak Dynamic = 2.23617 W
            Subthreshold Leakage = 0.257769 W
            Gate Leakage = 0.0104221 W
            Runtime Dynamic = 0.00331744 W

*****************************************************************************************
Core:
      Area = 18.8223 mm^2
      Peak Dynamic = 32.6688 W
      Subthreshold Leakage = 9.45612 W
      Gate Leakage = 0.410037 W
      Runtime Dynamic = 0.343803 W

      Instruction Fetch Unit:
        Area = 0.373716 mm^2
        Peak Dynamic = 0.850323 W
        Subthreshold Leakage = 0.178061 W
        Gate Leakage = 0.00853018 W
        Runtime Dynamic = 0.000465558 W

          Instruction Cache:
            Area = 0.031153 mm^2
            Peak Dynamic = 0.0582816 W
            Subthreshold Leakage = 0.019862 W
            Gate Leakage = 0.000772322 W
            Runtime Dynamic = 1.32803e-11 W

          Branch Target Buffer:
            Area = 0.218343 mm^2
            Peak Dynamic = 0.0267203 W
            Subthreshold Leakage = 0.0792175 W
            Gate Leakage = 0.00258463 W
            Runtime Dynamic = 1.98492e-11 W

          Branch Predictor:
            Area = 0.0695659 mm^2
            Peak Dynamic = 0.0201237 W
            Subthreshold Leakage = 0.0305891 W
            Gate Leakage = 0.000734043 W
            Runtime Dynamic = 2.38216e-05 W

              Global Predictor:
                Area = 0.0246062 mm^2
                Peak Dynamic = 0.00680391 W
                Subthreshold Leakage = 0.0119463 W
                Gate Leakage = 0.000281893 W
                Runtime Dynamic = 8.89172e-06 W

              Local Predictor:
              L1_Local Predictor:
                Area = 0.0116952 mm^2
                Peak Dynamic = 0.00411002 W
                Subthreshold Leakage = 0.00621882 W
                Gate Leakage = 0.000155927 W
                Runtime Dynamic = 5.56755e-06 W

              L2_Local Predictor:
                Area = 0.00590338 mm^2
                Peak Dynamic = 0.0020446 W
                Subthreshold Leakage = 0.0027348 W
                Gate Leakage = 7.97825e-05 W
                Runtime Dynamic = 2.76943e-06 W

              Chooser:
                Area = 0.0246062 mm^2
                Peak Dynamic = 0.00680391 W
                Subthreshold Leakage = 0.0119463 W
                Gate Leakage = 0.000281893 W
                Runtime Dynamic = 8.89172e-06 W

              RAS:
                Area = 0.00275494 mm^2
                Peak Dynamic = 0.00240583 W
                Subthreshold Leakage = 0.000477777 W
                Gate Leakage = 1.43306e-05 W
                Runtime Dynamic = 4.7059e-07 W

          Instruction Buffer:
            Area = 0.012681 mm^2
            Peak Dynamic = 0.333876 W
            Subthreshold Leakage = 0.00241792 W
            Gate Leakage = 7.7627e-05 W
            Runtime Dynamic = 0.000227375 W

          Instruction Decoder:
            Area = 0.0121409 mm^2
            Peak Dynamic = 0.314767 W
            Subthreshold Leakage = 0.00447554 W
            Gate Leakage = 0.00013906 W
            Runtime Dynamic = 0.000214361 W

      Renaming Unit:
        Area = 4.07069 mm^2
        Peak Dynamic = 20.6475 W
        Subthreshold Leakage = 1.04744 W
        Gate Leakage = 0.0625803 W
        Runtime Dynamic = 0.00504588 W

          Int Front End RAT:
            Area = 2.39226 mm^2
            Peak Dynamic = 13.7118 W
            Subthreshold Leakage = 0.602615 W
            Gate Leakage = 0.0343763 W
            Runtime Dynamic = 0.00498184 W

          FP Front End RAT:
            Area = 1.41952 mm^2
            Peak Dynamic = 6.70218 W
            Subthreshold Leakage = 0.394292 W
            Gate Leakage = 0.0237137 W
            Runtime Dynamic = 3.75349e-05 W

          Free List:
            Area = 0.116512 mm^2
            Peak Dynamic = 0.0548029 W
            Subthreshold Leakage = 0.00408189 W
            Gate Leakage = 0.00011355 W
            Runtime Dynamic = 2.62525e-05 W

          Int Retire RAT: 
            Area = 0.0189764 mm^2
            Peak Dynamic = 0.0211238 W
            Subthreshold Leakage = 0.000839329 W
            Gate Leakage = 3.11248e-05 W
            Runtime Dynamic = 0 W

          FP Retire RAT:
            Area = 0.0111561 mm^2
            Peak Dynamic = 0.013167 W
            Subthreshold Leakage = 0.00065932 W
            Gate Leakage = 2.49388e-05 W
            Runtime Dynamic = 0 W

          FP Free List:
            Area = 0.0824369 mm^2
            Peak Dynamic = 0.0478719 W
            Subthreshold Leakage = 0.00345646 W
            Gate Leakage = 9.82089e-05 W
            Runtime Dynamic = 2.6153e-07 W

      Load Store Unit:
        Area = 0.930327 mm^2
        Peak Dynamic = 1.31008 W
        Subthreshold Leakage = 0.307052 W
        Gate Leakage = 0.0148495 W
        Runtime Dynamic = 0.000824559 W

          Data Cache:
            Area = 0.231404 mm^2
            Peak Dynamic = 0.403485 W
            Subthreshold Leakage = 0.101848 W
            Gate Leakage = 0.00404542 W
            Runtime Dynamic = 3.11852e-11 W

          LoadQ:
            Area = 0.268613 mm^2
            Peak Dynamic = 0.40502 W
            Subthreshold Leakage = 0.0818531 W
            Gate Leakage = 0.00329078 W
            Runtime Dynamic = 0.000274853 W

          StoreQ:
            Area = 0.268613 mm^2
            Peak Dynamic = 0.40502 W
            Subthreshold Leakage = 0.0818531 W
            Gate Leakage = 0.00329078 W
            Runtime Dynamic = 0.000549706 W

      Memory Management Unit:
        Area = 0.218493 mm^2
        Peak Dynamic = 0.213214 W
        Subthreshold Leakage = 0.099136 W
        Gate Leakage = 0.00647838 W
        Runtime Dynamic = 2.53497e-06 W

          Itlb:
            Area = 0.0224248 mm^2
            Peak Dynamic = 0.0148392 W
            Subthreshold Leakage = 0.00889002 W
            Gate Leakage = 0.000350037 W
            Runtime Dynamic = 2.53493e-06 W

          Dtlb:
            Area = 0.166236 mm^2
            Peak Dynamic = 0.101821 W
            Subthreshold Leakage = 0.0487475 W
            Gate Leakage = 0.00190585 W
            Runtime Dynamic = 1.35808e-11 W

      Execution Unit:
        Area = 11.085 mm^2
        Peak Dynamic = 9.64771 W
        Subthreshold Leakage = 5.74786 W
        Gate Leakage = 0.233639 W
        Runtime Dynamic = 0.337465 W

          Register Files:
            Area = 2.26478 mm^2
            Peak Dynamic = 2.66097 W
            Subthreshold Leakage = 0.113345 W
            Gate Leakage = 0.00360427 W
            Runtime Dynamic = 0.000537615 W

              Integer RF:
                Area = 1.13239 mm^2
                Peak Dynamic = 1.52055 W
                Subthreshold Leakage = 0.0566724 W
                Gate Leakage = 0.00180213 W
                Runtime Dynamic = 0.000534545 W

              Floating Point RF:
                Area = 1.13239 mm^2
                Peak Dynamic = 1.14041 W
                Subthreshold Leakage = 0.0566724 W
                Gate Leakage = 0.00180213 W
                Runtime Dynamic = 3.07066e-06 W

          Instruction Scheduler:
            Area = 0.752987 mm^2
            Peak Dynamic = 1.37144 W
            Subthreshold Leakage = 0.103893 W
            Gate Leakage = 0.00387543 W
            Runtime Dynamic = 0.00112201 W

              Instruction Window:
                Area = 0.120064 mm^2
                Peak Dynamic = 0.334445 W
                Subthreshold Leakage = 0.0219608 W
                Gate Leakage = 0.000910492 W
                Runtime Dynamic = 0.00059235 W

              FP Instruction Window:
                Area = 0.233305 mm^2
                Peak Dynamic = 0.469621 W
                Subthreshold Leakage = 0.0563153 W
                Gate Leakage = 0.00227521 W
                Runtime Dynamic = 6.11782e-06 W

              ROB:
                Area = 0.399618 mm^2
                Peak Dynamic = 0.567376 W
                Subthreshold Leakage = 0.0256169 W
                Gate Leakage = 0.000689732 W
                Runtime Dynamic = 0.000523538 W

          Integer ALUs (Count: 8 ):
            Area = 0.439479 mm^2
            Peak Dynamic = 0.926622 W
            Subthreshold Leakage = 0.851296 W
            Gate Leakage = 0.0344197 W
            Runtime Dynamic = 0.0562678 W

          Floating Point Units (FPUs) (Count: 6 ):
            Area = 7.06712 mm^2
            Peak Dynamic = 2.12662 W
            Subthreshold Leakage = 3.42235 W
            Gate Leakage = 0.138373 W
            Runtime Dynamic = 0.166896 W

          Complex ALUs (Mul/Div) (Count: 3 ):
            Area = 0.494414 mm^2
            Peak Dynamic = 0.229349 W
            Subthreshold Leakage = 0.957708 W
            Gate Leakage = 0.0387221 W
            Runtime Dynamic = 0.111251 W

          Results Broadcast Bus:
            Area Overhead = 0.0363775 mm^2
            Peak Dynamic = 2.23617 W
            Subthreshold Leakage = 0.257769 W
            Gate Leakage = 0.0104221 W
            Runtime Dynamic = 0.00138965 W

*****************************************************************************************
L2
      Area = 8.27164 mm^2
      Peak Dynamic = 0.112651 W
      Subthreshold Leakage = 5.291 W
      Gate Leakage = 0.138421 W
      Runtime Dynamic = 0.000772149 W

*****************************************************************************************
First Level Directory
      Area = 0.230936 mm^2
      Peak Dynamic = 0.0100361 W
      Subthreshold Leakage = 0.160847 W
      Gate Leakage = 0.00488567 W
      Runtime Dynamic = 1.75e-11 W

*****************************************************************************************
Memory Controller:
      Area = 0.271054 mm^2
      Peak Dynamic = 0.299952 W
      Subthreshold Leakage = 0.0388043 W
      Gate Leakage = 0.00183315 W
      Runtime Dynamic = 0.0300364 W

      Front End Engine:
        Area = 0.234699 mm^2
        Peak Dynamic = 0.18131 W
        Subthreshold Leakage = 0.0348135 W
        Gate Leakage = 0.00138987 W
        Runtime Dynamic = 0.0181434 W

      Transaction Engine:
        Area = 0.036355 mm^2
        Peak Dynamic = 0.118642 W
        Subthreshold Leakage = 0.00399073 W
        Gate Leakage = 0.000443275 W
        Runtime Dynamic = 0.011893 W

*****************************************************************************************
BUSES
      Area = 0.0390058 mm^2
      Peak Dynamic = 0.114965 W
      Subthreshold Leakage = 0.0225189 W
      Gate Leakage = 0.000910488 W
      Runtime Dynamic = 0 W

      Bus: 
        Area = 0.0390058 mm^2
        Peak Dynamic = 0.114965 W
        Subthreshold Leakage = 0.0225189 W
        Gate Leakage = 0.000910488 W
        Runtime Dynamic = 0 W

*****************************************************************************************

McPAT (version 1.0 of Aug, 2013) results  (current print level is 5)
*****************************************************************************************
  Technology 32 nm
  Interconnect metal projection= aggressive interconnect technology projection
  Core clock Rate(MHz) 2000

*****************************************************************************************
Processor: 
  Area = 46.4572 mm^2
  Peak Power = 91.2667 W
  Total Leakage = 25.3915 W
  Peak Dynamic = 65.8752 W
  Subthreshold Leakage = 24.4254 W
  Gate Leakage = 0.966125 W
  Runtime Dynamic = 3.63022 W

  Total Cores: 2 cores 
  Device Type= ITRS high performance device type
    Area = 37.6445 mm^2
    Peak Dynamic = 65.3376 W
    Subthreshold Leakage = 18.9122 W
    Gate Leakage = 0.820075 W
    Runtime Dynamic = 3.58162 W

  Total L2s: 
  Device Type= ITRS high performance device type
    Area = 8.27164 mm^2
    Peak Dynamic = 0.112651 W
    Subthreshold Leakage = 5.291 W
    Gate Leakage = 0.138421 W
    Runtime Dynamic = 0.018483 W

  Total First Level Directory: 
  Device Type= ITRS high performance device type
    Area = 0.230936 mm^2
    Peak Dynamic = 0.0100361 W
    Subthreshold Leakage = 0.160847 W
    Gate Leakage = 0.00488567 W
    Runtime Dynamic = 4.12663e-11 W

  Total NoCs (Network/Bus): 
  Device Type= ITRS high performance device type
    Area = 0.0390058 mm^2
    Peak Dynamic = 0.114965 W
    Subthreshold Leakage = 0.0225189 W
    Gate Leakage = 0.000910488 W
    Runtime Dynamic = 0 W

  Total MCs: 1 Memory Controllers 
  Device Type= ITRS high performance device type
    Area = 0.271054 mm^2
    Peak Dynamic = 0.299952 W
    Subthreshold Leakage = 0.0388043 W
    Gate Leakage = 0.00183315 W
    Runtime Dynamic = 0.0301204 W

*****************************************************************************************
Core:
      Area = 18.8223 mm^2
      Peak Dynamic = 32.6688 W
      Subthreshold Leakage = 9.45612 W
      Gate Leakage = 0.410037 W
      Runtime Dynamic = 3.24472 W

      Instruction Fetch Unit:
        Area = 0.373716 mm^2
        Peak Dynamic = 0.850323 W
        Subthreshold Leakage = 0.178061 W
        Gate Leakage = 0.00853018 W
        Runtime Dynamic = 0.136718 W

          Instruction Cache:
            Area = 0.031153 mm^2
            Peak Dynamic = 0.0582816 W
            Subthreshold Leakage = 0.019862 W
            Gate Leakage = 0.000772322 W
            Runtime Dynamic = 3.1316e-11 W

          Branch Target Buffer:
            Area = 0.218343 mm^2
            Peak Dynamic = 0.0267203 W
            Subthreshold Leakage = 0.0792175 W
            Gate Leakage = 0.00258463 W
            Runtime Dynamic = 4.6806e-11 W

          Branch Predictor:
            Area = 0.0695659 mm^2
            Peak Dynamic = 0.0201237 W
            Subthreshold Leakage = 0.0305891 W
            Gate Leakage = 0.000734043 W
            Runtime Dynamic = 0.00216526 W

              Global Predictor:
                Area = 0.0246062 mm^2
                Peak Dynamic = 0.00680391 W
                Subthreshold Leakage = 0.0119463 W
                Gate Leakage = 0.000281893 W
                Runtime Dynamic = 0.00080504 W

              Local Predictor:
              L1_Local Predictor:
                Area = 0.0116952 mm^2
                Peak Dynamic = 0.00411002 W
                Subthreshold Leakage = 0.00621882 W
                Gate Leakage = 0.000155927 W
                Runtime Dynamic = 0.000507872 W

              L2_Local Predictor:
                Area = 0.00590338 mm^2
                Peak Dynamic = 0.0020446 W
                Subthreshold Leakage = 0.0027348 W
                Gate Leakage = 7.97825e-05 W
                Runtime Dynamic = 0.000252623 W

              Chooser:
                Area = 0.0246062 mm^2
                Peak Dynamic = 0.00680391 W
                Subthreshold Leakage = 0.0119463 W
                Gate Leakage = 0.000281893 W
                Runtime Dynamic = 0.00080504 W

              RAS:
                Area = 0.00275494 mm^2
                Peak Dynamic = 0.00240583 W
                Subthreshold Leakage = 0.000477777 W
                Gate Leakage = 1.43306e-05 W
                Runtime Dynamic = 4.73094e-05 W

          Instruction Buffer:
            Area = 0.012681 mm^2
            Peak Dynamic = 0.333876 W
            Subthreshold Leakage = 0.00241792 W
            Gate Leakage = 7.7627e-05 W
            Runtime Dynamic = 0.0692582 W

          Instruction Decoder:
            Area = 0.0121409 mm^2
            Peak Dynamic = 0.314767 W
            Subthreshold Leakage = 0.00447554 W
            Gate Leakage = 0.00013906 W
            Runtime Dynamic = 0.0652942 W

      Renaming Unit:
        Area = 4.07069 mm^2
        Peak Dynamic = 20.6475 W
        Subthreshold Leakage = 1.04744 W
        Gate Leakage = 0.0625803 W
        Runtime Dynamic = 1.57861 W

          Int Front End RAT:
            Area = 2.39226 mm^2
            Peak Dynamic = 13.7118 W
            Subthreshold Leakage = 0.602615 W
            Gate Leakage = 0.0343763 W
            Runtime Dynamic = 1.52894 W

          FP Front End RAT:
            Area = 1.41952 mm^2
            Peak Dynamic = 6.70218 W
            Subthreshold Leakage = 0.394292 W
            Gate Leakage = 0.0237137 W
            Runtime Dynamic = 0.0413317 W

          Free List:
            Area = 0.116512 mm^2
            Peak Dynamic = 0.0548029 W
            Subthreshold Leakage = 0.00408189 W
            Gate Leakage = 0.00011355 W
            Runtime Dynamic = 0.00805696 W

          Int Retire RAT: 
            Area = 0.0189764 mm^2
            Peak Dynamic = 0.0211238 W
            Subthreshold Leakage = 0.000839329 W
            Gate Leakage = 3.11248e-05 W
            Runtime Dynamic = 0 W

          FP Retire RAT:
            Area = 0.0111561 mm^2
            Peak Dynamic = 0.013167 W
            Subthreshold Leakage = 0.00065932 W
            Gate Leakage = 2.49388e-05 W
            Runtime Dynamic = 0 W

          FP Free List:
            Area = 0.0824369 mm^2
            Peak Dynamic = 0.0478719 W
            Subthreshold Leakage = 0.00345646 W
            Gate Leakage = 9.82089e-05 W
            Runtime Dynamic = 0.000287985 W

      Load Store Unit:
        Area = 0.930327 mm^2
        Peak Dynamic = 1.31008 W
        Subthreshold Leakage = 0.307052 W
        Gate Leakage = 0.0148495 W
        Runtime Dynamic = 0.233364 W

          Data Cache:
            Area = 0.231404 mm^2
            Peak Dynamic = 0.403485 W
            Subthreshold Leakage = 0.101848 W
            Gate Leakage = 0.00404542 W
            Runtime Dynamic = 7.35371e-11 W

          LoadQ:
            Area = 0.268613 mm^2
            Peak Dynamic = 0.40502 W
            Subthreshold Leakage = 0.0818531 W
            Gate Leakage = 0.00329078 W
            Runtime Dynamic = 0.077788 W

          StoreQ:
            Area = 0.268613 mm^2
            Peak Dynamic = 0.40502 W
            Subthreshold Leakage = 0.0818531 W
            Gate Leakage = 0.00329078 W
            Runtime Dynamic = 0.155576 W

      Memory Management Unit:
        Area = 0.218493 mm^2
        Peak Dynamic = 0.213214 W
        Subthreshold Leakage = 0.099136 W
        Gate Leakage = 0.00647838 W
        Runtime Dynamic = 0.00289594 W

          Itlb:
            Area = 0.0224248 mm^2
            Peak Dynamic = 0.0148392 W
            Subthreshold Leakage = 0.00889002 W
            Gate Leakage = 0.000350037 W
            Runtime Dynamic = 0.00289594 W

          Dtlb:
            Area = 0.166236 mm^2
            Peak Dynamic = 0.101821 W
            Subthreshold Leakage = 0.0487475 W
            Gate Leakage = 0.00190585 W
            Runtime Dynamic = 3.20246e-11 W

      Execution Unit:
        Area = 11.085 mm^2
        Peak Dynamic = 9.64771 W
        Subthreshold Leakage = 5.74786 W
        Gate Leakage = 0.233639 W
        Runtime Dynamic = 1.29313 W

          Register Files:
            Area = 2.26478 mm^2
            Peak Dynamic = 2.66097 W
            Subthreshold Leakage = 0.113345 W
            Gate Leakage = 0.00360427 W
            Runtime Dynamic = 0.177136 W

              Integer RF:
                Area = 1.13239 mm^2
                Peak Dynamic = 1.52055 W
                Subthreshold Leakage = 0.0566724 W
                Gate Leakage = 0.00180213 W
                Runtime Dynamic = 0.172724 W

              Floating Point RF:
                Area = 1.13239 mm^2
                Peak Dynamic = 1.14041 W
                Subthreshold Leakage = 0.0566724 W
                Gate Leakage = 0.00180213 W
                Runtime Dynamic = 0.00441163 W

          Instruction Scheduler:
            Area = 0.752987 mm^2
            Peak Dynamic = 1.37144 W
            Subthreshold Leakage = 0.103893 W
            Gate Leakage = 0.00387543 W
            Runtime Dynamic = 0.13969 W

              Instruction Window:
                Area = 0.120064 mm^2
                Peak Dynamic = 0.334445 W
                Subthreshold Leakage = 0.0219608 W
                Gate Leakage = 0.000910492 W
                Runtime Dynamic = 0.132043 W

              FP Instruction Window:
                Area = 0.233305 mm^2
                Peak Dynamic = 0.469621 W
                Subthreshold Leakage = 0.0563153 W
                Gate Leakage = 0.00227521 W
                Runtime Dynamic = 0.00641259 W

              ROB:
                Area = 0.399618 mm^2
                Peak Dynamic = 0.567376 W
                Subthreshold Leakage = 0.0256169 W
                Gate Leakage = 0.000689732 W
                Runtime Dynamic = 0.00123454 W

          Integer ALUs (Count: 8 ):
            Area = 0.439479 mm^2
            Peak Dynamic = 0.926622 W
            Subthreshold Leakage = 0.851296 W
            Gate Leakage = 0.0344197 W
            Runtime Dynamic = 0.239949 W

          Floating Point Units (FPUs) (Count: 6 ):
            Area = 7.06712 mm^2
            Peak Dynamic = 2.12662 W
            Subthreshold Leakage = 3.42235 W
            Gate Leakage = 0.138373 W
            Runtime Dynamic = 0.188218 W

          Complex ALUs (Mul/Div) (Count: 3 ):
            Area = 0.494414 mm^2
            Peak Dynamic = 0.229349 W
            Subthreshold Leakage = 0.957708 W
            Gate Leakage = 0.0387221 W
            Runtime Dynamic = 0.11793 W

          Results Broadcast Bus:
            Area Overhead = 0.0363775 mm^2
            Peak Dynamic = 2.23617 W
            Subthreshold Leakage = 0.257769 W
            Gate Leakage = 0.0104221 W
            Runtime Dynamic = 0.430205 W

*****************************************************************************************
Core:
      Area = 18.8223 mm^2
      Peak Dynamic = 32.6688 W
      Subthreshold Leakage = 9.45612 W
      Gate Leakage = 0.410037 W
      Runtime Dynamic = 0.336901 W

      Instruction Fetch Unit:
        Area = 0.373716 mm^2
        Peak Dynamic = 0.850323 W
        Subthreshold Leakage = 0.178061 W
        Gate Leakage = 0.00853018 W
        Runtime Dynamic = 9.51386e-05 W

          Instruction Cache:
            Area = 0.031153 mm^2
            Peak Dynamic = 0.0582816 W
            Subthreshold Leakage = 0.019862 W
            Gate Leakage = 0.000772322 W
            Runtime Dynamic = 3.1316e-11 W

          Branch Target Buffer:
            Area = 0.218343 mm^2
            Peak Dynamic = 0.0267203 W
            Subthreshold Leakage = 0.0792175 W
            Gate Leakage = 0.00258463 W
            Runtime Dynamic = 4.6806e-11 W

          Branch Predictor:
            Area = 0.0695659 mm^2
            Peak Dynamic = 0.0201237 W
            Subthreshold Leakage = 0.0305891 W
            Gate Leakage = 0.000734043 W
            Runtime Dynamic = 3.97699e-06 W

              Global Predictor:
                Area = 0.0246062 mm^2
                Peak Dynamic = 0.00680391 W
                Subthreshold Leakage = 0.0119463 W
                Gate Leakage = 0.000281893 W
                Runtime Dynamic = 1.4687e-06 W

              Local Predictor:
              L1_Local Predictor:
                Area = 0.0116952 mm^2
                Peak Dynamic = 0.00411002 W
                Subthreshold Leakage = 0.00621882 W
                Gate Leakage = 0.000155927 W
                Runtime Dynamic = 9.18367e-07 W

              L2_Local Predictor:
                Area = 0.00590338 mm^2
                Peak Dynamic = 0.0020446 W
                Subthreshold Leakage = 0.0027348 W
                Gate Leakage = 7.97825e-05 W
                Runtime Dynamic = 4.56819e-07 W

              Chooser:
                Area = 0.0246062 mm^2
                Peak Dynamic = 0.00680391 W
                Subthreshold Leakage = 0.0119463 W
                Gate Leakage = 0.000281893 W
                Runtime Dynamic = 1.4687e-06 W

              RAS:
                Area = 0.00275494 mm^2
                Peak Dynamic = 0.00240583 W
                Subthreshold Leakage = 0.000477777 W
                Gate Leakage = 1.43306e-05 W
                Runtime Dynamic = 1.21226e-07 W

          Instruction Buffer:
            Area = 0.012681 mm^2
            Peak Dynamic = 0.333876 W
            Subthreshold Leakage = 0.00241792 W
            Gate Leakage = 7.7627e-05 W
            Runtime Dynamic = 4.69235e-05 W

          Instruction Decoder:
            Area = 0.0121409 mm^2
            Peak Dynamic = 0.314767 W
            Subthreshold Leakage = 0.00447554 W
            Gate Leakage = 0.00013906 W
            Runtime Dynamic = 4.42379e-05 W

      Renaming Unit:
        Area = 4.07069 mm^2
        Peak Dynamic = 20.6475 W
        Subthreshold Leakage = 1.04744 W
        Gate Leakage = 0.0625803 W
        Runtime Dynamic = 0.000999164 W

          Int Front End RAT:
            Area = 2.39226 mm^2
            Peak Dynamic = 13.7118 W
            Subthreshold Leakage = 0.602615 W
            Gate Leakage = 0.0343763 W
            Runtime Dynamic = 0.000993199 W

          FP Front End RAT:
            Area = 1.41952 mm^2
            Peak Dynamic = 6.70218 W
            Subthreshold Leakage = 0.394292 W
            Gate Leakage = 0.0237137 W
            Runtime Dynamic = 7.26057e-07 W

          Free List:
            Area = 0.116512 mm^2
            Peak Dynamic = 0.0548029 W
            Subthreshold Leakage = 0.00408189 W
            Gate Leakage = 0.00011355 W
            Runtime Dynamic = 5.23382e-06 W

          Int Retire RAT: 
            Area = 0.0189764 mm^2
            Peak Dynamic = 0.0211238 W
            Subthreshold Leakage = 0.000839329 W
            Gate Leakage = 3.11248e-05 W
            Runtime Dynamic = 0 W

          FP Retire RAT:
            Area = 0.0111561 mm^2
            Peak Dynamic = 0.013167 W
            Subthreshold Leakage = 0.00065932 W
            Gate Leakage = 2.49388e-05 W
            Runtime Dynamic = 0 W

          FP Free List:
            Area = 0.0824369 mm^2
            Peak Dynamic = 0.0478719 W
            Subthreshold Leakage = 0.00345646 W
            Gate Leakage = 9.82089e-05 W
            Runtime Dynamic = 5.05891e-09 W

      Load Store Unit:
        Area = 0.930327 mm^2
        Peak Dynamic = 1.31008 W
        Subthreshold Leakage = 0.307052 W
        Gate Leakage = 0.0148495 W
        Runtime Dynamic = 0.000172119 W

          Data Cache:
            Area = 0.231404 mm^2
            Peak Dynamic = 0.403485 W
            Subthreshold Leakage = 0.101848 W
            Gate Leakage = 0.00404542 W
            Runtime Dynamic = 7.35371e-11 W

          LoadQ:
            Area = 0.268613 mm^2
            Peak Dynamic = 0.40502 W
            Subthreshold Leakage = 0.0818531 W
            Gate Leakage = 0.00329078 W
            Runtime Dynamic = 5.73728e-05 W

          StoreQ:
            Area = 0.268613 mm^2
            Peak Dynamic = 0.40502 W
            Subthreshold Leakage = 0.0818531 W
            Gate Leakage = 0.00329078 W
            Runtime Dynamic = 0.000114746 W

      Memory Management Unit:
        Area = 0.218493 mm^2
        Peak Dynamic = 0.213214 W
        Subthreshold Leakage = 0.099136 W
        Gate Leakage = 0.00647838 W
        Runtime Dynamic = 7.90878e-07 W

          Itlb:
            Area = 0.0224248 mm^2
            Peak Dynamic = 0.0148392 W
            Subthreshold Leakage = 0.00889002 W
            Gate Leakage = 0.000350037 W
            Runtime Dynamic = 7.90797e-07 W

          Dtlb:
            Area = 0.166236 mm^2
            Peak Dynamic = 0.101821 W
            Subthreshold Leakage = 0.0487475 W
            Gate Leakage = 0.00190585 W
            Runtime Dynamic = 3.20246e-11 W

      Execution Unit:
        Area = 11.085 mm^2
        Peak Dynamic = 9.64771 W
        Subthreshold Leakage = 5.74786 W
        Gate Leakage = 0.233639 W
        Runtime Dynamic = 0.335634 W

          Register Files:
            Area = 2.26478 mm^2
            Peak Dynamic = 2.66097 W
            Subthreshold Leakage = 0.113345 W
            Gate Leakage = 0.00360427 W
            Runtime Dynamic = 0.000109704 W

              Integer RF:
                Area = 1.13239 mm^2
                Peak Dynamic = 1.52055 W
                Subthreshold Leakage = 0.0566724 W
                Gate Leakage = 0.00180213 W
                Runtime Dynamic = 0.000109649 W

              Floating Point RF:
                Area = 1.13239 mm^2
                Peak Dynamic = 1.14041 W
                Subthreshold Leakage = 0.0566724 W
                Gate Leakage = 0.00180213 W
                Runtime Dynamic = 5.4811e-08 W

          Instruction Scheduler:
            Area = 0.752987 mm^2
            Peak Dynamic = 1.37144 W
            Subthreshold Leakage = 0.103893 W
            Gate Leakage = 0.00387543 W
            Runtime Dynamic = 0.00135865 W

              Instruction Window:
                Area = 0.120064 mm^2
                Peak Dynamic = 0.334445 W
                Subthreshold Leakage = 0.0219608 W
                Gate Leakage = 0.000910492 W
                Runtime Dynamic = 0.000123985 W

              FP Instruction Window:
                Area = 0.233305 mm^2
                Peak Dynamic = 0.469621 W
                Subthreshold Leakage = 0.0563153 W
                Gate Leakage = 0.00227521 W
                Runtime Dynamic = 1.21541e-07 W

              ROB:
                Area = 0.399618 mm^2
                Peak Dynamic = 0.567376 W
                Subthreshold Leakage = 0.0256169 W
                Gate Leakage = 0.000689732 W
                Runtime Dynamic = 0.00123454 W

          Integer ALUs (Count: 8 ):
            Area = 0.439479 mm^2
            Peak Dynamic = 0.926622 W
            Subthreshold Leakage = 0.851296 W
            Gate Leakage = 0.0344197 W
            Runtime Dynamic = 0.0557587 W

          Floating Point Units (FPUs) (Count: 6 ):
            Area = 7.06712 mm^2
            Peak Dynamic = 2.12662 W
            Subthreshold Leakage = 3.42235 W
            Gate Leakage = 0.138373 W
            Runtime Dynamic = 0.166874 W

          Complex ALUs (Mul/Div) (Count: 3 ):
            Area = 0.494414 mm^2
            Peak Dynamic = 0.229349 W
            Subthreshold Leakage = 0.957708 W
            Gate Leakage = 0.0387221 W
            Runtime Dynamic = 0.11125 W

          Results Broadcast Bus:
            Area Overhead = 0.0363775 mm^2
            Peak Dynamic = 2.23617 W
            Subthreshold Leakage = 0.257769 W
            Gate Leakage = 0.0104221 W
            Runtime Dynamic = 0.000283306 W

*****************************************************************************************
L2
      Area = 8.27164 mm^2
      Peak Dynamic = 0.112651 W
      Subthreshold Leakage = 5.291 W
      Gate Leakage = 0.138421 W
      Runtime Dynamic = 0.018483 W

*****************************************************************************************
First Level Directory
      Area = 0.230936 mm^2
      Peak Dynamic = 0.0100361 W
      Subthreshold Leakage = 0.160847 W
      Gate Leakage = 0.00488567 W
      Runtime Dynamic = 4.12663e-11 W

*****************************************************************************************
Memory Controller:
      Area = 0.271054 mm^2
      Peak Dynamic = 0.299952 W
      Subthreshold Leakage = 0.0388043 W
      Gate Leakage = 0.00183315 W
      Runtime Dynamic = 0.0301204 W

      Front End Engine:
        Area = 0.234699 mm^2
        Peak Dynamic = 0.18131 W
        Subthreshold Leakage = 0.0348135 W
        Gate Leakage = 0.00138987 W
        Runtime Dynamic = 0.0181688 W

      Transaction Engine:
        Area = 0.036355 mm^2
        Peak Dynamic = 0.118642 W
        Subthreshold Leakage = 0.00399073 W
        Gate Leakage = 0.000443275 W
        Runtime Dynamic = 0.0119516 W

*****************************************************************************************
BUSES
      Area = 0.0390058 mm^2
      Peak Dynamic = 0.114965 W
      Subthreshold Leakage = 0.0225189 W
      Gate Leakage = 0.000910488 W
      Runtime Dynamic = 0 W

      Bus: 
        Area = 0.0390058 mm^2
        Peak Dynamic = 0.114965 W
        Subthreshold Leakage = 0.0225189 W
        Gate Leakage = 0.000910488 W
        Runtime Dynamic = 0 W

*****************************************************************************************

McPAT (version 1.0 of Aug, 2013) results  (current print level is 5)
*****************************************************************************************
  Technology 32 nm
  Interconnect metal projection= aggressive interconnect technology projection
  Core clock Rate(MHz) 2000

*****************************************************************************************
Processor: 
  Area = 46.4572 mm^2
  Peak Power = 91.2667 W
  Total Leakage = 25.3915 W
  Peak Dynamic = 65.8752 W
  Subthreshold Leakage = 24.4254 W
  Gate Leakage = 0.966125 W
  Runtime Dynamic = 3.67722 W

  Total Cores: 2 cores 
  Device Type= ITRS high performance device type
    Area = 37.6445 mm^2
    Peak Dynamic = 65.3376 W
    Subthreshold Leakage = 18.9122 W
    Gate Leakage = 0.820075 W
    Runtime Dynamic = 3.62865 W

  Total L2s: 
  Device Type= ITRS high performance device type
    Area = 8.27164 mm^2
    Peak Dynamic = 0.112651 W
    Subthreshold Leakage = 5.291 W
    Gate Leakage = 0.138421 W
    Runtime Dynamic = 0.0185092 W

  Total First Level Directory: 
  Device Type= ITRS high performance device type
    Area = 0.230936 mm^2
    Peak Dynamic = 0.0100361 W
    Subthreshold Leakage = 0.160847 W
    Gate Leakage = 0.00488567 W
    Runtime Dynamic = 2.06275e-11 W

  Total NoCs (Network/Bus): 
  Device Type= ITRS high performance device type
    Area = 0.0390058 mm^2
    Peak Dynamic = 0.114965 W
    Subthreshold Leakage = 0.0225189 W
    Gate Leakage = 0.000910488 W
    Runtime Dynamic = 0 W

  Total MCs: 1 Memory Controllers 
  Device Type= ITRS high performance device type
    Area = 0.271054 mm^2
    Peak Dynamic = 0.299952 W
    Subthreshold Leakage = 0.0388043 W
    Gate Leakage = 0.00183315 W
    Runtime Dynamic = 0.0300605 W

*****************************************************************************************
Core:
      Area = 18.8223 mm^2
      Peak Dynamic = 32.6688 W
      Subthreshold Leakage = 9.45612 W
      Gate Leakage = 0.410037 W
      Runtime Dynamic = 3.29268 W

      Instruction Fetch Unit:
        Area = 0.373716 mm^2
        Peak Dynamic = 0.850323 W
        Subthreshold Leakage = 0.178061 W
        Gate Leakage = 0.00853018 W
        Runtime Dynamic = 0.139142 W

          Instruction Cache:
            Area = 0.031153 mm^2
            Peak Dynamic = 0.0582816 W
            Subthreshold Leakage = 0.019862 W
            Gate Leakage = 0.000772322 W
            Runtime Dynamic = 1.56537e-11 W

          Branch Target Buffer:
            Area = 0.218343 mm^2
            Peak Dynamic = 0.0267203 W
            Subthreshold Leakage = 0.0792175 W
            Gate Leakage = 0.00258463 W
            Runtime Dynamic = 2.33965e-11 W

          Branch Predictor:
            Area = 0.0695659 mm^2
            Peak Dynamic = 0.0201237 W
            Subthreshold Leakage = 0.0305891 W
            Gate Leakage = 0.000734043 W
            Runtime Dynamic = 0.00218306 W

              Global Predictor:
                Area = 0.0246062 mm^2
                Peak Dynamic = 0.00680391 W
                Subthreshold Leakage = 0.0119463 W
                Gate Leakage = 0.000281893 W
                Runtime Dynamic = 0.000811713 W

              Local Predictor:
              L1_Local Predictor:
                Area = 0.0116952 mm^2
                Peak Dynamic = 0.00411002 W
                Subthreshold Leakage = 0.00621882 W
                Gate Leakage = 0.000155927 W
                Runtime Dynamic = 0.000511998 W

              L2_Local Predictor:
                Area = 0.00590338 mm^2
                Peak Dynamic = 0.0020446 W
                Subthreshold Leakage = 0.0027348 W
                Gate Leakage = 7.97825e-05 W
                Runtime Dynamic = 0.000254676 W

              Chooser:
                Area = 0.0246062 mm^2
                Peak Dynamic = 0.00680391 W
                Subthreshold Leakage = 0.0119463 W
                Gate Leakage = 0.000281893 W
                Runtime Dynamic = 0.000811713 W

              RAS:
                Area = 0.00275494 mm^2
                Peak Dynamic = 0.00240583 W
                Subthreshold Leakage = 0.000477777 W
                Gate Leakage = 1.43306e-05 W
                Runtime Dynamic = 4.76336e-05 W

          Instruction Buffer:
            Area = 0.012681 mm^2
            Peak Dynamic = 0.333876 W
            Subthreshold Leakage = 0.00241792 W
            Gate Leakage = 7.7627e-05 W
            Runtime Dynamic = 0.0704969 W

          Instruction Decoder:
            Area = 0.0121409 mm^2
            Peak Dynamic = 0.314767 W
            Subthreshold Leakage = 0.00447554 W
            Gate Leakage = 0.00013906 W
            Runtime Dynamic = 0.066462 W

      Renaming Unit:
        Area = 4.07069 mm^2
        Peak Dynamic = 20.6475 W
        Subthreshold Leakage = 1.04744 W
        Gate Leakage = 0.0625803 W
        Runtime Dynamic = 1.60573 W

          Int Front End RAT:
            Area = 2.39226 mm^2
            Peak Dynamic = 13.7118 W
            Subthreshold Leakage = 0.602615 W
            Gate Leakage = 0.0343763 W
            Runtime Dynamic = 1.55613 W

          FP Front End RAT:
            Area = 1.41952 mm^2
            Peak Dynamic = 6.70218 W
            Subthreshold Leakage = 0.394292 W
            Gate Leakage = 0.0237137 W
            Runtime Dynamic = 0.0411089 W

          Free List:
            Area = 0.116512 mm^2
            Peak Dynamic = 0.0548029 W
            Subthreshold Leakage = 0.00408189 W
            Gate Leakage = 0.00011355 W
            Runtime Dynamic = 0.00820029 W

          Int Retire RAT: 
            Area = 0.0189764 mm^2
            Peak Dynamic = 0.0211238 W
            Subthreshold Leakage = 0.000839329 W
            Gate Leakage = 3.11248e-05 W
            Runtime Dynamic = 0 W

          FP Retire RAT:
            Area = 0.0111561 mm^2
            Peak Dynamic = 0.013167 W
            Subthreshold Leakage = 0.00065932 W
            Gate Leakage = 2.49388e-05 W
            Runtime Dynamic = 0 W

          FP Free List:
            Area = 0.0824369 mm^2
            Peak Dynamic = 0.0478719 W
            Subthreshold Leakage = 0.00345646 W
            Gate Leakage = 9.82089e-05 W
            Runtime Dynamic = 0.000286433 W

      Load Store Unit:
        Area = 0.930327 mm^2
        Peak Dynamic = 1.31008 W
        Subthreshold Leakage = 0.307052 W
        Gate Leakage = 0.0148495 W
        Runtime Dynamic = 0.236595 W

          Data Cache:
            Area = 0.231404 mm^2
            Peak Dynamic = 0.403485 W
            Subthreshold Leakage = 0.101848 W
            Gate Leakage = 0.00404542 W
            Runtime Dynamic = 3.67584e-11 W

          LoadQ:
            Area = 0.268613 mm^2
            Peak Dynamic = 0.40502 W
            Subthreshold Leakage = 0.0818531 W
            Gate Leakage = 0.00329078 W
            Runtime Dynamic = 0.078865 W

          StoreQ:
            Area = 0.268613 mm^2
            Peak Dynamic = 0.40502 W
            Subthreshold Leakage = 0.0818531 W
            Gate Leakage = 0.00329078 W
            Runtime Dynamic = 0.15773 W

      Memory Management Unit:
        Area = 0.218493 mm^2
        Peak Dynamic = 0.213214 W
        Subthreshold Leakage = 0.099136 W
        Gate Leakage = 0.00647838 W
        Runtime Dynamic = 0.00294075 W

          Itlb:
            Area = 0.0224248 mm^2
            Peak Dynamic = 0.0148392 W
            Subthreshold Leakage = 0.00889002 W
            Gate Leakage = 0.000350037 W
            Runtime Dynamic = 0.00294075 W

          Dtlb:
            Area = 0.166236 mm^2
            Peak Dynamic = 0.101821 W
            Subthreshold Leakage = 0.0487475 W
            Gate Leakage = 0.00190585 W
            Runtime Dynamic = 1.60079e-11 W

      Execution Unit:
        Area = 11.085 mm^2
        Peak Dynamic = 9.64771 W
        Subthreshold Leakage = 5.74786 W
        Gate Leakage = 0.233639 W
        Runtime Dynamic = 1.30827 W

          Register Files:
            Area = 2.26478 mm^2
            Peak Dynamic = 2.66097 W
            Subthreshold Leakage = 0.113345 W
            Gate Leakage = 0.00360427 W
            Runtime Dynamic = 0.180333 W

              Integer RF:
                Area = 1.13239 mm^2
                Peak Dynamic = 1.52055 W
                Subthreshold Leakage = 0.0566724 W
                Gate Leakage = 0.00180213 W
                Runtime Dynamic = 0.175934 W

              Floating Point RF:
                Area = 1.13239 mm^2
                Peak Dynamic = 1.14041 W
                Subthreshold Leakage = 0.0566724 W
                Gate Leakage = 0.00180213 W
                Runtime Dynamic = 0.00439912 W

          Instruction Scheduler:
            Area = 0.752987 mm^2
            Peak Dynamic = 1.37144 W
            Subthreshold Leakage = 0.103893 W
            Gate Leakage = 0.00387543 W
            Runtime Dynamic = 0.141138 W

              Instruction Window:
                Area = 0.120064 mm^2
                Peak Dynamic = 0.334445 W
                Subthreshold Leakage = 0.0219608 W
                Gate Leakage = 0.000910492 W
                Runtime Dynamic = 0.134146 W

              FP Instruction Window:
                Area = 0.233305 mm^2
                Peak Dynamic = 0.469621 W
                Subthreshold Leakage = 0.0563153 W
                Gate Leakage = 0.00227521 W
                Runtime Dynamic = 0.00637541 W

              ROB:
                Area = 0.399618 mm^2
                Peak Dynamic = 0.567376 W
                Subthreshold Leakage = 0.0256169 W
                Gate Leakage = 0.000689732 W
                Runtime Dynamic = 0.000617101 W

          Integer ALUs (Count: 8 ):
            Area = 0.439479 mm^2
            Peak Dynamic = 0.926622 W
            Subthreshold Leakage = 0.851296 W
            Gate Leakage = 0.0344197 W
            Runtime Dynamic = 0.243231 W

          Floating Point Units (FPUs) (Count: 6 ):
            Area = 7.06712 mm^2
            Peak Dynamic = 2.12662 W
            Subthreshold Leakage = 3.42235 W
            Gate Leakage = 0.138373 W
            Runtime Dynamic = 0.1881 W

          Complex ALUs (Mul/Div) (Count: 3 ):
            Area = 0.494414 mm^2
            Peak Dynamic = 0.229349 W
            Subthreshold Leakage = 0.957708 W
            Gate Leakage = 0.0387221 W
            Runtime Dynamic = 0.118212 W

          Results Broadcast Bus:
            Area Overhead = 0.0363775 mm^2
            Peak Dynamic = 2.23617 W
            Subthreshold Leakage = 0.257769 W
            Gate Leakage = 0.0104221 W
            Runtime Dynamic = 0.437259 W

*****************************************************************************************
Core:
      Area = 18.8223 mm^2
      Peak Dynamic = 32.6688 W
      Subthreshold Leakage = 9.45612 W
      Gate Leakage = 0.410037 W
      Runtime Dynamic = 0.335968 W

      Instruction Fetch Unit:
        Area = 0.373716 mm^2
        Peak Dynamic = 0.850323 W
        Subthreshold Leakage = 0.178061 W
        Gate Leakage = 0.00853018 W
        Runtime Dynamic = 8.0068e-05 W

          Instruction Cache:
            Area = 0.031153 mm^2
            Peak Dynamic = 0.0582816 W
            Subthreshold Leakage = 0.019862 W
            Gate Leakage = 0.000772322 W
            Runtime Dynamic = 1.56537e-11 W

          Branch Target Buffer:
            Area = 0.218343 mm^2
            Peak Dynamic = 0.0267203 W
            Subthreshold Leakage = 0.0792175 W
            Gate Leakage = 0.00258463 W
            Runtime Dynamic = 2.33965e-11 W

          Branch Predictor:
            Area = 0.0695659 mm^2
            Peak Dynamic = 0.0201237 W
            Subthreshold Leakage = 0.0305891 W
            Gate Leakage = 0.000734043 W
            Runtime Dynamic = 3.35054e-06 W

              Global Predictor:
                Area = 0.0246062 mm^2
                Peak Dynamic = 0.00680391 W
                Subthreshold Leakage = 0.0119463 W
                Gate Leakage = 0.000281893 W
                Runtime Dynamic = 1.23659e-06 W

              Local Predictor:
              L1_Local Predictor:
                Area = 0.0116952 mm^2
                Peak Dynamic = 0.00411002 W
                Subthreshold Leakage = 0.00621882 W
                Gate Leakage = 0.000155927 W
                Runtime Dynamic = 7.7238e-07 W

              L2_Local Predictor:
                Area = 0.00590338 mm^2
                Peak Dynamic = 0.0020446 W
                Subthreshold Leakage = 0.0027348 W
                Gate Leakage = 7.97825e-05 W
                Runtime Dynamic = 3.84203e-07 W

              Chooser:
                Area = 0.0246062 mm^2
                Peak Dynamic = 0.00680391 W
                Subthreshold Leakage = 0.0119463 W
                Gate Leakage = 0.000281893 W
                Runtime Dynamic = 1.23659e-06 W

              RAS:
                Area = 0.00275494 mm^2
                Peak Dynamic = 0.00240583 W
                Subthreshold Leakage = 0.000477777 W
                Gate Leakage = 1.43306e-05 W
                Runtime Dynamic = 1.04993e-07 W

          Instruction Buffer:
            Area = 0.012681 mm^2
            Peak Dynamic = 0.333876 W
            Subthreshold Leakage = 0.00241792 W
            Gate Leakage = 7.7627e-05 W
            Runtime Dynamic = 3.94887e-05 W

          Instruction Decoder:
            Area = 0.0121409 mm^2
            Peak Dynamic = 0.314767 W
            Subthreshold Leakage = 0.00447554 W
            Gate Leakage = 0.00013906 W
            Runtime Dynamic = 3.72286e-05 W

      Renaming Unit:
        Area = 4.07069 mm^2
        Peak Dynamic = 20.6475 W
        Subthreshold Leakage = 1.04744 W
        Gate Leakage = 0.0625803 W
        Runtime Dynamic = 0.000832264 W

          Int Front End RAT:
            Area = 2.39226 mm^2
            Peak Dynamic = 13.7118 W
            Subthreshold Leakage = 0.602615 W
            Gate Leakage = 0.0343763 W
            Runtime Dynamic = 0.000827518 W

          FP Front End RAT:
            Area = 1.41952 mm^2
            Peak Dynamic = 6.70218 W
            Subthreshold Leakage = 0.394292 W
            Gate Leakage = 0.0237137 W
            Runtime Dynamic = 3.82928e-07 W

          Free List:
            Area = 0.116512 mm^2
            Peak Dynamic = 0.0548029 W
            Subthreshold Leakage = 0.00408189 W
            Gate Leakage = 0.00011355 W
            Runtime Dynamic = 4.36073e-06 W

          Int Retire RAT: 
            Area = 0.0189764 mm^2
            Peak Dynamic = 0.0211238 W
            Subthreshold Leakage = 0.000839329 W
            Gate Leakage = 3.11248e-05 W
            Runtime Dynamic = 0 W

          FP Retire RAT:
            Area = 0.0111561 mm^2
            Peak Dynamic = 0.013167 W
            Subthreshold Leakage = 0.00065932 W
            Gate Leakage = 2.49388e-05 W
            Runtime Dynamic = 0 W

          FP Free List:
            Area = 0.0824369 mm^2
            Peak Dynamic = 0.0478719 W
            Subthreshold Leakage = 0.00345646 W
            Gate Leakage = 9.82089e-05 W
            Runtime Dynamic = 2.66811e-09 W

      Load Store Unit:
        Area = 0.930327 mm^2
        Peak Dynamic = 1.31008 W
        Subthreshold Leakage = 0.307052 W
        Gate Leakage = 0.0148495 W
        Runtime Dynamic = 0.000145119 W

          Data Cache:
            Area = 0.231404 mm^2
            Peak Dynamic = 0.403485 W
            Subthreshold Leakage = 0.101848 W
            Gate Leakage = 0.00404542 W
            Runtime Dynamic = 3.67584e-11 W

          LoadQ:
            Area = 0.268613 mm^2
            Peak Dynamic = 0.40502 W
            Subthreshold Leakage = 0.0818531 W
            Gate Leakage = 0.00329078 W
            Runtime Dynamic = 4.8373e-05 W

          StoreQ:
            Area = 0.268613 mm^2
            Peak Dynamic = 0.40502 W
            Subthreshold Leakage = 0.0818531 W
            Gate Leakage = 0.00329078 W
            Runtime Dynamic = 9.67459e-05 W

      Memory Management Unit:
        Area = 0.218493 mm^2
        Peak Dynamic = 0.213214 W
        Subthreshold Leakage = 0.099136 W
        Gate Leakage = 0.00647838 W
        Runtime Dynamic = 7.15561e-07 W

          Itlb:
            Area = 0.0224248 mm^2
            Peak Dynamic = 0.0148392 W
            Subthreshold Leakage = 0.00889002 W
            Gate Leakage = 0.000350037 W
            Runtime Dynamic = 7.15521e-07 W

          Dtlb:
            Area = 0.166236 mm^2
            Peak Dynamic = 0.101821 W
            Subthreshold Leakage = 0.0487475 W
            Gate Leakage = 0.00190585 W
            Runtime Dynamic = 1.60079e-11 W

      Execution Unit:
        Area = 11.085 mm^2
        Peak Dynamic = 9.64771 W
        Subthreshold Leakage = 5.74786 W
        Gate Leakage = 0.233639 W
        Runtime Dynamic = 0.33491 W

          Register Files:
            Area = 2.26478 mm^2
            Peak Dynamic = 2.66097 W
            Subthreshold Leakage = 0.113345 W
            Gate Leakage = 0.00360427 W
            Runtime Dynamic = 9.18251e-05 W

              Integer RF:
                Area = 1.13239 mm^2
                Peak Dynamic = 1.52055 W
                Subthreshold Leakage = 0.0566724 W
                Gate Leakage = 0.00180213 W
                Runtime Dynamic = 9.17961e-05 W

              Floating Point RF:
                Area = 1.13239 mm^2
                Peak Dynamic = 1.14041 W
                Subthreshold Leakage = 0.0566724 W
                Gate Leakage = 0.00180213 W
                Runtime Dynamic = 2.90093e-08 W

          Instruction Scheduler:
            Area = 0.752987 mm^2
            Peak Dynamic = 1.37144 W
            Subthreshold Leakage = 0.103893 W
            Gate Leakage = 0.00387543 W
            Runtime Dynamic = 0.000720478 W

              Instruction Window:
                Area = 0.120064 mm^2
                Peak Dynamic = 0.334445 W
                Subthreshold Leakage = 0.0219608 W
                Gate Leakage = 0.000910492 W
                Runtime Dynamic = 0.000103313 W

              FP Instruction Window:
                Area = 0.233305 mm^2
                Peak Dynamic = 0.469621 W
                Subthreshold Leakage = 0.0563153 W
                Gate Leakage = 0.00227521 W
                Runtime Dynamic = 6.39824e-08 W

              ROB:
                Area = 0.399618 mm^2
                Peak Dynamic = 0.567376 W
                Subthreshold Leakage = 0.0256169 W
                Gate Leakage = 0.000689732 W
                Runtime Dynamic = 0.000617101 W

          Integer ALUs (Count: 8 ):
            Area = 0.439479 mm^2
            Peak Dynamic = 0.926622 W
            Subthreshold Leakage = 0.851296 W
            Gate Leakage = 0.0344197 W
            Runtime Dynamic = 0.0557369 W

          Floating Point Units (FPUs) (Count: 6 ):
            Area = 7.06712 mm^2
            Peak Dynamic = 2.12662 W
            Subthreshold Leakage = 3.42235 W
            Gate Leakage = 0.138373 W
            Runtime Dynamic = 0.166874 W

          Complex ALUs (Mul/Div) (Count: 3 ):
            Area = 0.494414 mm^2
            Peak Dynamic = 0.229349 W
            Subthreshold Leakage = 0.957708 W
            Gate Leakage = 0.0387221 W
            Runtime Dynamic = 0.11125 W

          Results Broadcast Bus:
            Area Overhead = 0.0363775 mm^2
            Peak Dynamic = 2.23617 W
            Subthreshold Leakage = 0.257769 W
            Gate Leakage = 0.0104221 W
            Runtime Dynamic = 0.000237116 W

*****************************************************************************************
L2
      Area = 8.27164 mm^2
      Peak Dynamic = 0.112651 W
      Subthreshold Leakage = 5.291 W
      Gate Leakage = 0.138421 W
      Runtime Dynamic = 0.0185092 W

*****************************************************************************************
First Level Directory
      Area = 0.230936 mm^2
      Peak Dynamic = 0.0100361 W
      Subthreshold Leakage = 0.160847 W
      Gate Leakage = 0.00488567 W
      Runtime Dynamic = 2.06275e-11 W

*****************************************************************************************
Memory Controller:
      Area = 0.271054 mm^2
      Peak Dynamic = 0.299952 W
      Subthreshold Leakage = 0.0388043 W
      Gate Leakage = 0.00183315 W
      Runtime Dynamic = 0.0300605 W

      Front End Engine:
        Area = 0.234699 mm^2
        Peak Dynamic = 0.18131 W
        Subthreshold Leakage = 0.0348135 W
        Gate Leakage = 0.00138987 W
        Runtime Dynamic = 0.0181507 W

      Transaction Engine:
        Area = 0.036355 mm^2
        Peak Dynamic = 0.118642 W
        Subthreshold Leakage = 0.00399073 W
        Gate Leakage = 0.000443275 W
        Runtime Dynamic = 0.0119098 W

*****************************************************************************************
BUSES
      Area = 0.0390058 mm^2
      Peak Dynamic = 0.114965 W
      Subthreshold Leakage = 0.0225189 W
      Gate Leakage = 0.000910488 W
      Runtime Dynamic = 0 W

      Bus: 
        Area = 0.0390058 mm^2
        Peak Dynamic = 0.114965 W
        Subthreshold Leakage = 0.0225189 W
        Gate Leakage = 0.000910488 W
        Runtime Dynamic = 0 W

*****************************************************************************************

McPAT (version 1.0 of Aug, 2013) results  (current print level is 5)
*****************************************************************************************
  Technology 32 nm
  Interconnect metal projection= aggressive interconnect technology projection
  Core clock Rate(MHz) 2000

*****************************************************************************************
Processor: 
  Area = 46.4572 mm^2
  Peak Power = 91.2667 W
  Total Leakage = 25.3915 W
  Peak Dynamic = 65.8752 W
  Subthreshold Leakage = 24.4254 W
  Gate Leakage = 0.966125 W
  Runtime Dynamic = 3.69111 W

  Total Cores: 2 cores 
  Device Type= ITRS high performance device type
    Area = 37.6445 mm^2
    Peak Dynamic = 65.3376 W
    Subthreshold Leakage = 18.9122 W
    Gate Leakage = 0.820075 W
    Runtime Dynamic = 3.64248 W

  Total L2s: 
  Device Type= ITRS high performance device type
    Area = 8.27164 mm^2
    Peak Dynamic = 0.112651 W
    Subthreshold Leakage = 5.291 W
    Gate Leakage = 0.138421 W
    Runtime Dynamic = 0.0185906 W

  Total First Level Directory: 
  Device Type= ITRS high performance device type
    Area = 0.230936 mm^2
    Peak Dynamic = 0.0100361 W
    Subthreshold Leakage = 0.160847 W
    Gate Leakage = 0.00488567 W
    Runtime Dynamic = 1.37504e-11 W

  Total NoCs (Network/Bus): 
  Device Type= ITRS high performance device type
    Area = 0.0390058 mm^2
    Peak Dynamic = 0.114965 W
    Subthreshold Leakage = 0.0225189 W
    Gate Leakage = 0.000910488 W
    Runtime Dynamic = 0 W

  Total MCs: 1 Memory Controllers 
  Device Type= ITRS high performance device type
    Area = 0.271054 mm^2
    Peak Dynamic = 0.299952 W
    Subthreshold Leakage = 0.0388043 W
    Gate Leakage = 0.00183315 W
    Runtime Dynamic = 0.0300407 W

*****************************************************************************************
Core:
      Area = 18.8223 mm^2
      Peak Dynamic = 32.6688 W
      Subthreshold Leakage = 9.45612 W
      Gate Leakage = 0.410037 W
      Runtime Dynamic = 3.3068 W

      Instruction Fetch Unit:
        Area = 0.373716 mm^2
        Peak Dynamic = 0.850323 W
        Subthreshold Leakage = 0.178061 W
        Gate Leakage = 0.00853018 W
        Runtime Dynamic = 0.139948 W

          Instruction Cache:
            Area = 0.031153 mm^2
            Peak Dynamic = 0.0582816 W
            Subthreshold Leakage = 0.019862 W
            Gate Leakage = 0.000772322 W
            Runtime Dynamic = 1.04348e-11 W

          Branch Target Buffer:
            Area = 0.218343 mm^2
            Peak Dynamic = 0.0267203 W
            Subthreshold Leakage = 0.0792175 W
            Gate Leakage = 0.00258463 W
            Runtime Dynamic = 1.55963e-11 W

          Branch Predictor:
            Area = 0.0695659 mm^2
            Peak Dynamic = 0.0201237 W
            Subthreshold Leakage = 0.0305891 W
            Gate Leakage = 0.000734043 W
            Runtime Dynamic = 0.00218325 W

              Global Predictor:
                Area = 0.0246062 mm^2
                Peak Dynamic = 0.00680391 W
                Subthreshold Leakage = 0.0119463 W
                Gate Leakage = 0.000281893 W
                Runtime Dynamic = 0.000811862 W

              Local Predictor:
              L1_Local Predictor:
                Area = 0.0116952 mm^2
                Peak Dynamic = 0.00411002 W
                Subthreshold Leakage = 0.00621882 W
                Gate Leakage = 0.000155927 W
                Runtime Dynamic = 0.000511997 W

              L2_Local Predictor:
                Area = 0.00590338 mm^2
                Peak Dynamic = 0.0020446 W
                Subthreshold Leakage = 0.0027348 W
                Gate Leakage = 7.97825e-05 W
                Runtime Dynamic = 0.000254675 W

              Chooser:
                Area = 0.0246062 mm^2
                Peak Dynamic = 0.00680391 W
                Subthreshold Leakage = 0.0119463 W
                Gate Leakage = 0.000281893 W
                Runtime Dynamic = 0.000811862 W

              RAS:
                Area = 0.00275494 mm^2
                Peak Dynamic = 0.00240583 W
                Subthreshold Leakage = 0.000477777 W
                Gate Leakage = 1.43306e-05 W
                Runtime Dynamic = 4.75241e-05 W

          Instruction Buffer:
            Area = 0.012681 mm^2
            Peak Dynamic = 0.333876 W
            Subthreshold Leakage = 0.00241792 W
            Gate Leakage = 7.7627e-05 W
            Runtime Dynamic = 0.0709114 W

          Instruction Decoder:
            Area = 0.0121409 mm^2
            Peak Dynamic = 0.314767 W
            Subthreshold Leakage = 0.00447554 W
            Gate Leakage = 0.00013906 W
            Runtime Dynamic = 0.0668529 W

      Renaming Unit:
        Area = 4.07069 mm^2
        Peak Dynamic = 20.6475 W
        Subthreshold Leakage = 1.04744 W
        Gate Leakage = 0.0625803 W
        Runtime Dynamic = 1.61418 W

          Int Front End RAT:
            Area = 2.39226 mm^2
            Peak Dynamic = 13.7118 W
            Subthreshold Leakage = 0.602615 W
            Gate Leakage = 0.0343763 W
            Runtime Dynamic = 1.56538 W

          FP Front End RAT:
            Area = 1.41952 mm^2
            Peak Dynamic = 6.70218 W
            Subthreshold Leakage = 0.394292 W
            Gate Leakage = 0.0237137 W
            Runtime Dynamic = 0.0402706 W

          Free List:
            Area = 0.116512 mm^2
            Peak Dynamic = 0.0548029 W
            Subthreshold Leakage = 0.00408189 W
            Gate Leakage = 0.00011355 W
            Runtime Dynamic = 0.00824899 W

          Int Retire RAT: 
            Area = 0.0189764 mm^2
            Peak Dynamic = 0.0211238 W
            Subthreshold Leakage = 0.000839329 W
            Gate Leakage = 3.11248e-05 W
            Runtime Dynamic = 0 W

          FP Retire RAT:
            Area = 0.0111561 mm^2
            Peak Dynamic = 0.013167 W
            Subthreshold Leakage = 0.00065932 W
            Gate Leakage = 2.49388e-05 W
            Runtime Dynamic = 0 W

          FP Free List:
            Area = 0.0824369 mm^2
            Peak Dynamic = 0.0478719 W
            Subthreshold Leakage = 0.00345646 W
            Gate Leakage = 9.82089e-05 W
            Runtime Dynamic = 0.000280591 W

      Load Store Unit:
        Area = 0.930327 mm^2
        Peak Dynamic = 1.31008 W
        Subthreshold Leakage = 0.307052 W
        Gate Leakage = 0.0148495 W
        Runtime Dynamic = 0.237218 W

          Data Cache:
            Area = 0.231404 mm^2
            Peak Dynamic = 0.403485 W
            Subthreshold Leakage = 0.101848 W
            Gate Leakage = 0.00404542 W
            Runtime Dynamic = 2.45033e-11 W

          LoadQ:
            Area = 0.268613 mm^2
            Peak Dynamic = 0.40502 W
            Subthreshold Leakage = 0.0818531 W
            Gate Leakage = 0.00329078 W
            Runtime Dynamic = 0.0790726 W

          StoreQ:
            Area = 0.268613 mm^2
            Peak Dynamic = 0.40502 W
            Subthreshold Leakage = 0.0818531 W
            Gate Leakage = 0.00329078 W
            Runtime Dynamic = 0.158145 W

      Memory Management Unit:
        Area = 0.218493 mm^2
        Peak Dynamic = 0.213214 W
        Subthreshold Leakage = 0.099136 W
        Gate Leakage = 0.00647838 W
        Runtime Dynamic = 0.00294825 W

          Itlb:
            Area = 0.0224248 mm^2
            Peak Dynamic = 0.0148392 W
            Subthreshold Leakage = 0.00889002 W
            Gate Leakage = 0.000350037 W
            Runtime Dynamic = 0.00294825 W

          Dtlb:
            Area = 0.166236 mm^2
            Peak Dynamic = 0.101821 W
            Subthreshold Leakage = 0.0487475 W
            Gate Leakage = 0.00190585 W
            Runtime Dynamic = 1.06709e-11 W

      Execution Unit:
        Area = 11.085 mm^2
        Peak Dynamic = 9.64771 W
        Subthreshold Leakage = 5.74786 W
        Gate Leakage = 0.233639 W
        Runtime Dynamic = 1.31251 W

          Register Files:
            Area = 2.26478 mm^2
            Peak Dynamic = 2.66097 W
            Subthreshold Leakage = 0.113345 W
            Gate Leakage = 0.00360427 W
            Runtime Dynamic = 0.181385 W

              Integer RF:
                Area = 1.13239 mm^2
                Peak Dynamic = 1.52055 W
                Subthreshold Leakage = 0.0566724 W
                Gate Leakage = 0.00180213 W
                Runtime Dynamic = 0.177063 W

              Floating Point RF:
                Area = 1.13239 mm^2
                Peak Dynamic = 1.14041 W
                Subthreshold Leakage = 0.0566724 W
                Gate Leakage = 0.00180213 W
                Runtime Dynamic = 0.00432201 W

          Instruction Scheduler:
            Area = 0.752987 mm^2
            Peak Dynamic = 1.37144 W
            Subthreshold Leakage = 0.103893 W
            Gate Leakage = 0.00387543 W
            Runtime Dynamic = 0.141514 W

              Instruction Window:
                Area = 0.120064 mm^2
                Peak Dynamic = 0.334445 W
                Subthreshold Leakage = 0.0219608 W
                Gate Leakage = 0.000910492 W
                Runtime Dynamic = 0.134855 W

              FP Instruction Window:
                Area = 0.233305 mm^2
                Peak Dynamic = 0.469621 W
                Subthreshold Leakage = 0.0563153 W
                Gate Leakage = 0.00227521 W
                Runtime Dynamic = 0.00624755 W

              ROB:
                Area = 0.399618 mm^2
                Peak Dynamic = 0.567376 W
                Subthreshold Leakage = 0.0256169 W
                Gate Leakage = 0.000689732 W
                Runtime Dynamic = 0.000411363 W

          Integer ALUs (Count: 8 ):
            Area = 0.439479 mm^2
            Peak Dynamic = 0.926622 W
            Subthreshold Leakage = 0.851296 W
            Gate Leakage = 0.0344197 W
            Runtime Dynamic = 0.244358 W

          Floating Point Units (FPUs) (Count: 6 ):
            Area = 7.06712 mm^2
            Peak Dynamic = 2.12662 W
            Subthreshold Leakage = 3.42235 W
            Gate Leakage = 0.138373 W
            Runtime Dynamic = 0.187693 W

          Complex ALUs (Mul/Div) (Count: 3 ):
            Area = 0.494414 mm^2
            Peak Dynamic = 0.229349 W
            Subthreshold Leakage = 0.957708 W
            Gate Leakage = 0.0387221 W
            Runtime Dynamic = 0.118385 W

          Results Broadcast Bus:
            Area Overhead = 0.0363775 mm^2
            Peak Dynamic = 2.23617 W
            Subthreshold Leakage = 0.257769 W
            Gate Leakage = 0.0104221 W
            Runtime Dynamic = 0.439177 W

*****************************************************************************************
Core:
      Area = 18.8223 mm^2
      Peak Dynamic = 32.6688 W
      Subthreshold Leakage = 9.45612 W
      Gate Leakage = 0.410037 W
      Runtime Dynamic = 0.335678 W

      Instruction Fetch Unit:
        Area = 0.373716 mm^2
        Peak Dynamic = 0.850323 W
        Subthreshold Leakage = 0.178061 W
        Gate Leakage = 0.00853018 W
        Runtime Dynamic = 7.59355e-05 W

          Instruction Cache:
            Area = 0.031153 mm^2
            Peak Dynamic = 0.0582816 W
            Subthreshold Leakage = 0.019862 W
            Gate Leakage = 0.000772322 W
            Runtime Dynamic = 1.04348e-11 W

          Branch Target Buffer:
            Area = 0.218343 mm^2
            Peak Dynamic = 0.0267203 W
            Subthreshold Leakage = 0.0792175 W
            Gate Leakage = 0.00258463 W
            Runtime Dynamic = 1.55963e-11 W

          Branch Predictor:
            Area = 0.0695659 mm^2
            Peak Dynamic = 0.0201237 W
            Subthreshold Leakage = 0.0305891 W
            Gate Leakage = 0.000734043 W
            Runtime Dynamic = 3.17401e-06 W

              Global Predictor:
                Area = 0.0246062 mm^2
                Peak Dynamic = 0.00680391 W
                Subthreshold Leakage = 0.0119463 W
                Gate Leakage = 0.000281893 W
                Runtime Dynamic = 1.17112e-06 W

              Local Predictor:
              L1_Local Predictor:
                Area = 0.0116952 mm^2
                Peak Dynamic = 0.00411002 W
                Subthreshold Leakage = 0.00621882 W
                Gate Leakage = 0.000155927 W
                Runtime Dynamic = 7.31263e-07 W

              L2_Local Predictor:
                Area = 0.00590338 mm^2
                Peak Dynamic = 0.0020446 W
                Subthreshold Leakage = 0.0027348 W
                Gate Leakage = 7.97825e-05 W
                Runtime Dynamic = 3.6375e-07 W

              Chooser:
                Area = 0.0246062 mm^2
                Peak Dynamic = 0.00680391 W
                Subthreshold Leakage = 0.0119463 W
                Gate Leakage = 0.000281893 W
                Runtime Dynamic = 1.17112e-06 W

              RAS:
                Area = 0.00275494 mm^2
                Peak Dynamic = 0.00240583 W
                Subthreshold Leakage = 0.000477777 W
                Gate Leakage = 1.43306e-05 W
                Runtime Dynamic = 1.00509e-07 W

          Instruction Buffer:
            Area = 0.012681 mm^2
            Peak Dynamic = 0.333876 W
            Subthreshold Leakage = 0.00241792 W
            Gate Leakage = 7.7627e-05 W
            Runtime Dynamic = 3.74525e-05 W

          Instruction Decoder:
            Area = 0.0121409 mm^2
            Peak Dynamic = 0.314767 W
            Subthreshold Leakage = 0.00447554 W
            Gate Leakage = 0.00013906 W
            Runtime Dynamic = 3.53089e-05 W

      Renaming Unit:
        Area = 4.07069 mm^2
        Peak Dynamic = 20.6475 W
        Subthreshold Leakage = 1.04744 W
        Gate Leakage = 0.0625803 W
        Runtime Dynamic = 0.000788178 W

          Int Front End RAT:
            Area = 2.39226 mm^2
            Peak Dynamic = 13.7118 W
            Subthreshold Leakage = 0.602615 W
            Gate Leakage = 0.0343763 W
            Runtime Dynamic = 0.000783737 W

          FP Front End RAT:
            Area = 1.41952 mm^2
            Peak Dynamic = 6.70218 W
            Subthreshold Leakage = 0.394292 W
            Gate Leakage = 0.0237137 W
            Runtime Dynamic = 3.08994e-07 W

          Free List:
            Area = 0.116512 mm^2
            Peak Dynamic = 0.0548029 W
            Subthreshold Leakage = 0.00408189 W
            Gate Leakage = 0.00011355 W
            Runtime Dynamic = 4.13002e-06 W

          Int Retire RAT: 
            Area = 0.0189764 mm^2
            Peak Dynamic = 0.0211238 W
            Subthreshold Leakage = 0.000839329 W
            Gate Leakage = 3.11248e-05 W
            Runtime Dynamic = 0 W

          FP Retire RAT:
            Area = 0.0111561 mm^2
            Peak Dynamic = 0.013167 W
            Subthreshold Leakage = 0.00065932 W
            Gate Leakage = 2.49388e-05 W
            Runtime Dynamic = 0 W

          FP Free List:
            Area = 0.0824369 mm^2
            Peak Dynamic = 0.0478719 W
            Subthreshold Leakage = 0.00345646 W
            Gate Leakage = 9.82089e-05 W
            Runtime Dynamic = 2.15296e-09 W

      Load Store Unit:
        Area = 0.930327 mm^2
        Peak Dynamic = 1.31008 W
        Subthreshold Leakage = 0.307052 W
        Gate Leakage = 0.0148495 W
        Runtime Dynamic = 0.000138128 W

          Data Cache:
            Area = 0.231404 mm^2
            Peak Dynamic = 0.403485 W
            Subthreshold Leakage = 0.101848 W
            Gate Leakage = 0.00404542 W
            Runtime Dynamic = 2.45033e-11 W

          LoadQ:
            Area = 0.268613 mm^2
            Peak Dynamic = 0.40502 W
            Subthreshold Leakage = 0.0818531 W
            Gate Leakage = 0.00329078 W
            Runtime Dynamic = 4.60425e-05 W

          StoreQ:
            Area = 0.268613 mm^2
            Peak Dynamic = 0.40502 W
            Subthreshold Leakage = 0.0818531 W
            Gate Leakage = 0.00329078 W
            Runtime Dynamic = 9.20851e-05 W

[...]
    Area = 0.0390058 mm^2
    Peak Dynamic = 0.114965 W
    Subthreshold Leakage = 0.0225189 W
    Gate Leakage = 0.000910488 W
    Runtime Dynamic = 0 W

  Total MCs: 1 Memory Controllers 
  Device Type= ITRS high performance device type
    Area = 0.271054 mm^2
    Peak Dynamic = 0.299952 W
    Subthreshold Leakage = 0.0388043 W
    Gate Leakage = 0.00183315 W
    Runtime Dynamic = 0.0300212 W

*****************************************************************************************
Core:
      Area = 18.8223 mm^2
      Peak Dynamic = 32.6688 W
      Subthreshold Leakage = 9.45612 W
      Gate Leakage = 0.410037 W
      Runtime Dynamic = 3.33777 W

      Instruction Fetch Unit:
        Area = 0.373716 mm^2
        Peak Dynamic = 0.850323 W
        Subthreshold Leakage = 0.178061 W
        Gate Leakage = 0.00853018 W
        Runtime Dynamic = 0.141651 W

          Instruction Cache:
            Area = 0.031153 mm^2
            Peak Dynamic = 0.0582816 W
            Subthreshold Leakage = 0.019862 W
            Gate Leakage = 0.000772322 W
            Runtime Dynamic = 3.12702e-12 W

          Branch Target Buffer:
            Area = 0.218343 mm^2
            Peak Dynamic = 0.0267203 W
            Subthreshold Leakage = 0.0792175 W
            Gate Leakage = 0.00258463 W
            Runtime Dynamic = 4.67375e-12 W

          Branch Predictor:
            Area = 0.0695659 mm^2
            Peak Dynamic = 0.0201237 W
            Subthreshold Leakage = 0.0305891 W
            Gate Leakage = 0.000734043 W
            Runtime Dynamic = 0.00219294 W

              Global Predictor:
                Area = 0.0246062 mm^2
                Peak Dynamic = 0.00680391 W
                Subthreshold Leakage = 0.0119463 W
                Gate Leakage = 0.000281893 W
                Runtime Dynamic = 0.000815386 W

              Local Predictor:
              L1_Local Predictor:
                Area = 0.0116952 mm^2
                Peak Dynamic = 0.00411002 W
                Subthreshold Leakage = 0.00621882 W
                Gate Leakage = 0.000155927 W
                Runtime Dynamic = 0.000514032 W

              L2_Local Predictor:
                Area = 0.00590338 mm^2
                Peak Dynamic = 0.0020446 W
                Subthreshold Leakage = 0.0027348 W
                Gate Leakage = 7.97825e-05 W
                Runtime Dynamic = 0.000255688 W

              Chooser:
                Area = 0.0246062 mm^2
                Peak Dynamic = 0.00680391 W
                Subthreshold Leakage = 0.0119463 W
                Gate Leakage = 0.000281893 W
                Runtime Dynamic = 0.000815386 W

              RAS:
                Area = 0.00275494 mm^2
                Peak Dynamic = 0.00240583 W
                Subthreshold Leakage = 0.000477777 W
                Gate Leakage = 1.43306e-05 W
                Runtime Dynamic = 4.81381e-05 W

          Instruction Buffer:
            Area = 0.012681 mm^2
            Peak Dynamic = 0.333876 W
            Subthreshold Leakage = 0.00241792 W
            Gate Leakage = 7.7627e-05 W
            Runtime Dynamic = 0.0717832 W

          Instruction Decoder:
            Area = 0.0121409 mm^2
            Peak Dynamic = 0.314767 W
            Subthreshold Leakage = 0.00447554 W
            Gate Leakage = 0.00013906 W
            Runtime Dynamic = 0.0676747 W

      Renaming Unit:
        Area = 4.07069 mm^2
        Peak Dynamic = 20.6475 W
        Subthreshold Leakage = 1.04744 W
        Gate Leakage = 0.0625803 W
        Runtime Dynamic = 1.6325 W

          Int Front End RAT:
            Area = 2.39226 mm^2
            Peak Dynamic = 13.7118 W
            Subthreshold Leakage = 0.602615 W
            Gate Leakage = 0.0343763 W
            Runtime Dynamic = 1.58485 W

          FP Front End RAT:
            Area = 1.41952 mm^2
            Peak Dynamic = 6.70218 W
            Subthreshold Leakage = 0.394292 W
            Gate Leakage = 0.0237137 W
            Runtime Dynamic = 0.0390304 W

          Free List:
            Area = 0.116512 mm^2
            Peak Dynamic = 0.0548029 W
            Subthreshold Leakage = 0.00408189 W
            Gate Leakage = 0.00011355 W
            Runtime Dynamic = 0.00835159 W

          Int Retire RAT: 
            Area = 0.0189764 mm^2
            Peak Dynamic = 0.0211238 W
            Subthreshold Leakage = 0.000839329 W
            Gate Leakage = 3.11248e-05 W
            Runtime Dynamic = 0 W

          FP Retire RAT:
            Area = 0.0111561 mm^2
            Peak Dynamic = 0.013167 W
            Subthreshold Leakage = 0.00065932 W
            Gate Leakage = 2.49388e-05 W
            Runtime Dynamic = 0 W

          FP Free List:
            Area = 0.0824369 mm^2
            Peak Dynamic = 0.0478719 W
            Subthreshold Leakage = 0.00345646 W
            Gate Leakage = 9.82089e-05 W
            Runtime Dynamic = 0.00027195 W

      Load Store Unit:
        Area = 0.930327 mm^2
        Peak Dynamic = 1.31008 W
        Subthreshold Leakage = 0.307052 W
        Gate Leakage = 0.0148495 W
        Runtime Dynamic = 0.238777 W

          Data Cache:
            Area = 0.231404 mm^2
            Peak Dynamic = 0.403485 W
            Subthreshold Leakage = 0.101848 W
            Gate Leakage = 0.00404542 W
            Runtime Dynamic = 7.34295e-12 W

          LoadQ:
            Area = 0.268613 mm^2
            Peak Dynamic = 0.40502 W
            Subthreshold Leakage = 0.0818531 W
            Gate Leakage = 0.00329078 W
            Runtime Dynamic = 0.0795924 W

          StoreQ:
            Area = 0.268613 mm^2
            Peak Dynamic = 0.40502 W
            Subthreshold Leakage = 0.0818531 W
            Gate Leakage = 0.00329078 W
            Runtime Dynamic = 0.159185 W

      Memory Management Unit:
        Area = 0.218493 mm^2
        Peak Dynamic = 0.213214 W
        Subthreshold Leakage = 0.099136 W
        Gate Leakage = 0.00647838 W
        Runtime Dynamic = 0.00297216 W

          Itlb:
            Area = 0.0224248 mm^2
            Peak Dynamic = 0.0148392 W
            Subthreshold Leakage = 0.00889002 W
            Gate Leakage = 0.000350037 W
            Runtime Dynamic = 0.00297216 W

          Dtlb:
            Area = 0.166236 mm^2
            Peak Dynamic = 0.101821 W
            Subthreshold Leakage = 0.0487475 W
            Gate Leakage = 0.00190585 W
            Runtime Dynamic = 3.19777e-12 W

      Execution Unit:
        Area = 11.085 mm^2
        Peak Dynamic = 9.64771 W
        Subthreshold Leakage = 5.74786 W
        Gate Leakage = 0.233639 W
        Runtime Dynamic = 1.32187 W

          Register Files:
            Area = 2.26478 mm^2
            Peak Dynamic = 2.66097 W
            Subthreshold Leakage = 0.113345 W
            Gate Leakage = 0.00360427 W
            Runtime Dynamic = 0.183597 W

              Integer RF:
                Area = 1.13239 mm^2
                Peak Dynamic = 1.52055 W
                Subthreshold Leakage = 0.0566724 W
                Gate Leakage = 0.00180213 W
                Runtime Dynamic = 0.179385 W

              Floating Point RF:
                Area = 1.13239 mm^2
                Peak Dynamic = 1.14041 W
                Subthreshold Leakage = 0.0566724 W
                Gate Leakage = 0.00180213 W
                Runtime Dynamic = 0.00421188 W

          Instruction Scheduler:
            Area = 0.752987 mm^2
            Peak Dynamic = 1.37144 W
            Subthreshold Leakage = 0.103893 W
            Gate Leakage = 0.00387543 W
            Runtime Dynamic = 0.142515 W

              Instruction Window:
                Area = 0.120064 mm^2
                Peak Dynamic = 0.334445 W
                Subthreshold Leakage = 0.0219608 W
                Gate Leakage = 0.000910492 W
                Runtime Dynamic = 0.136333 W

              FP Instruction Window:
                Area = 0.233305 mm^2
                Peak Dynamic = 0.469621 W
                Subthreshold Leakage = 0.0563153 W
                Gate Leakage = 0.00227521 W
                Runtime Dynamic = 0.00605913 W

              ROB:
                Area = 0.399618 mm^2
                Peak Dynamic = 0.567376 W
                Subthreshold Leakage = 0.0256169 W
                Gate Leakage = 0.000689732 W
                Runtime Dynamic = 0.000123274 W

          Integer ALUs (Count: 8 ):
            Area = 0.439479 mm^2
            Peak Dynamic = 0.926622 W
            Subthreshold Leakage = 0.851296 W
            Gate Leakage = 0.0344197 W
            Runtime Dynamic = 0.2467 W

          Floating Point Units (FPUs) (Count: 6 ):
            Area = 7.06712 mm^2
            Peak Dynamic = 2.12662 W
            Subthreshold Leakage = 3.42235 W
            Gate Leakage = 0.138373 W
            Runtime Dynamic = 0.187111 W

          Complex ALUs (Mul/Div) (Count: 3 ):
            Area = 0.494414 mm^2
            Peak Dynamic = 0.229349 W
            Subthreshold Leakage = 0.957708 W
            Gate Leakage = 0.0387221 W
            Runtime Dynamic = 0.118572 W

          Results Broadcast Bus:
            Area Overhead = 0.0363775 mm^2
            Peak Dynamic = 2.23617 W
            Subthreshold Leakage = 0.257769 W
            Gate Leakage = 0.0104221 W
            Runtime Dynamic = 0.443375 W

*****************************************************************************************
Core:
      Area = 18.8223 mm^2
      Peak Dynamic = 32.6688 W
      Subthreshold Leakage = 9.45612 W
      Gate Leakage = 0.410037 W
      Runtime Dynamic = 0.335297 W

      Instruction Fetch Unit:
        Area = 0.373716 mm^2
        Peak Dynamic = 0.850323 W
        Subthreshold Leakage = 0.178061 W
        Gate Leakage = 0.00853018 W
        Runtime Dynamic = 7.13476e-05 W

          Instruction Cache:
            Area = 0.031153 mm^2
            Peak Dynamic = 0.0582816 W
            Subthreshold Leakage = 0.019862 W
            Gate Leakage = 0.000772322 W
            Runtime Dynamic = 3.12702e-12 W

          Branch Target Buffer:
            Area = 0.218343 mm^2
            Peak Dynamic = 0.0267203 W
            Subthreshold Leakage = 0.0792175 W
            Gate Leakage = 0.00258463 W
            Runtime Dynamic = 4.67375e-12 W

          Branch Predictor:
            Area = 0.0695659 mm^2
            Peak Dynamic = 0.0201237 W
            Subthreshold Leakage = 0.0305891 W
            Gate Leakage = 0.000734043 W
            Runtime Dynamic = 2.9815e-06 W

              Global Predictor:
                Area = 0.0246062 mm^2
                Peak Dynamic = 0.00680391 W
                Subthreshold Leakage = 0.0119463 W
                Gate Leakage = 0.000281893 W
                Runtime Dynamic = 1.10022e-06 W

              Local Predictor:
              L1_Local Predictor:
                Area = 0.0116952 mm^2
                Peak Dynamic = 0.00411002 W
                Subthreshold Leakage = 0.00621882 W
                Gate Leakage = 0.000155927 W
                Runtime Dynamic = 6.86625e-07 W

              L2_Local Predictor:
                Area = 0.00590338 mm^2
                Peak Dynamic = 0.0020446 W
                Subthreshold Leakage = 0.0027348 W
                Gate Leakage = 7.97825e-05 W
                Runtime Dynamic = 3.41546e-07 W

              Chooser:
                Area = 0.0246062 mm^2
                Peak Dynamic = 0.00680391 W
                Subthreshold Leakage = 0.0119463 W
                Gate Leakage = 0.000281893 W
                Runtime Dynamic = 1.10022e-06 W

              RAS:
                Area = 0.00275494 mm^2
                Peak Dynamic = 0.00240583 W
                Subthreshold Leakage = 0.000477777 W
                Gate Leakage = 1.43306e-05 W
                Runtime Dynamic = 9.44377e-08 W

          Instruction Buffer:
            Area = 0.012681 mm^2
            Peak Dynamic = 0.333876 W
            Subthreshold Leakage = 0.00241792 W
            Gate Leakage = 7.7627e-05 W
            Runtime Dynamic = 3.51901e-05 W

          Instruction Decoder:
            Area = 0.0121409 mm^2
            Peak Dynamic = 0.314767 W
            Subthreshold Leakage = 0.00447554 W
            Gate Leakage = 0.00013906 W
            Runtime Dynamic = 3.3176e-05 W

      Renaming Unit:
        Area = 4.07069 mm^2
        Peak Dynamic = 20.6475 W
        Subthreshold Leakage = 1.04744 W
        Gate Leakage = 0.0625803 W
        Runtime Dynamic = 0.000739967 W

          Int Front End RAT:
            Area = 2.39226 mm^2
            Peak Dynamic = 13.7118 W
            Subthreshold Leakage = 0.602615 W
            Gate Leakage = 0.0343763 W
            Runtime Dynamic = 0.000735845 W

          FP Front End RAT:
            Area = 1.41952 mm^2
            Peak Dynamic = 6.70218 W
            Subthreshold Leakage = 0.394292 W
            Gate Leakage = 0.0237137 W
            Runtime Dynamic = 2.43044e-07 W

          Free List:
            Area = 0.116512 mm^2
            Peak Dynamic = 0.0548029 W
            Subthreshold Leakage = 0.00408189 W
            Gate Leakage = 0.00011355 W
            Runtime Dynamic = 3.87765e-06 W

          Int Retire RAT: 
            Area = 0.0189764 mm^2
            Peak Dynamic = 0.0211238 W
            Subthreshold Leakage = 0.000839329 W
            Gate Leakage = 3.11248e-05 W
            Runtime Dynamic = 0 W

          FP Retire RAT:
            Area = 0.0111561 mm^2
            Peak Dynamic = 0.013167 W
            Subthreshold Leakage = 0.00065932 W
            Gate Leakage = 2.49388e-05 W
            Runtime Dynamic = 0 W

          FP Free List:
            Area = 0.0824369 mm^2
            Peak Dynamic = 0.0478719 W
            Subthreshold Leakage = 0.00345646 W
            Gate Leakage = 9.82089e-05 W
            Runtime Dynamic = 1.69344e-09 W

      Load Store Unit:
        Area = 0.930327 mm^2
        Peak Dynamic = 1.31008 W
        Subthreshold Leakage = 0.307052 W
        Gate Leakage = 0.0148495 W
        Runtime Dynamic = 0.000130399 W

          Data Cache:
            Area = 0.231404 mm^2
            Peak Dynamic = 0.403485 W
            Subthreshold Leakage = 0.101848 W
            Gate Leakage = 0.00404542 W
            Runtime Dynamic = 7.34295e-12 W

          LoadQ:
            Area = 0.268613 mm^2
            Peak Dynamic = 0.40502 W
            Subthreshold Leakage = 0.0818531 W
            Gate Leakage = 0.00329078 W
            Runtime Dynamic = 4.34664e-05 W

          StoreQ:
            Area = 0.268613 mm^2
            Peak Dynamic = 0.40502 W
            Subthreshold Leakage = 0.0818531 W
            Gate Leakage = 0.00329078 W
            Runtime Dynamic = 8.69327e-05 W

      Memory Management Unit:
        Area = 0.218493 mm^2
        Peak Dynamic = 0.213214 W
        Subthreshold Leakage = 0.099136 W
        Gate Leakage = 0.00647838 W
        Runtime Dynamic = 6.86173e-07 W

          Itlb:
            Area = 0.0224248 mm^2
            Peak Dynamic = 0.0148392 W
            Subthreshold Leakage = 0.00889002 W
            Gate Leakage = 0.000350037 W
            Runtime Dynamic = 6.86165e-07 W

          Dtlb:
            Area = 0.166236 mm^2
            Peak Dynamic = 0.101821 W
            Subthreshold Leakage = 0.0487475 W
            Gate Leakage = 0.00190585 W
            Runtime Dynamic = 3.19777e-12 W

      Execution Unit:
        Area = 11.085 mm^2
        Peak Dynamic = 9.64771 W
        Subthreshold Leakage = 5.74786 W
        Gate Leakage = 0.233639 W
        Runtime Dynamic = 0.334355 W

          Register Files:
            Area = 2.26478 mm^2
            Peak Dynamic = 2.66097 W
            Subthreshold Leakage = 0.113345 W
            Gate Leakage = 0.00360427 W
            Runtime Dynamic = 8.16374e-05 W

              Integer RF:
                Area = 1.13239 mm^2
                Peak Dynamic = 1.52055 W
                Subthreshold Leakage = 0.0566724 W
                Gate Leakage = 0.00180213 W
                Runtime Dynamic = 8.1615e-05 W

              Floating Point RF:
                Area = 1.13239 mm^2
                Peak Dynamic = 1.14041 W
                Subthreshold Leakage = 0.0566724 W
                Gate Leakage = 0.00180213 W
                Runtime Dynamic = 2.24116e-08 W

          Instruction Scheduler:
            Area = 0.752987 mm^2
            Peak Dynamic = 1.37144 W
            Subthreshold Leakage = 0.103893 W
            Gate Leakage = 0.00387543 W
            Runtime Dynamic = 0.000214739 W

              Instruction Window:
                Area = 0.120064 mm^2
                Peak Dynamic = 0.334445 W
                Subthreshold Leakage = 0.0219608 W
                Gate Leakage = 0.000910492 W
                Runtime Dynamic = 9.14245e-05 W

              FP Instruction Window:
                Area = 0.233305 mm^2
                Peak Dynamic = 0.469621 W
                Subthreshold Leakage = 0.0563153 W
                Gate Leakage = 0.00227521 W
                Runtime Dynamic = 4.11356e-08 W

              ROB:
                Area = 0.399618 mm^2
                Peak Dynamic = 0.567376 W
                Subthreshold Leakage = 0.0256169 W
                Gate Leakage = 0.000689732 W
                Runtime Dynamic = 0.000123274 W

          Integer ALUs (Count: 8 ):
            Area = 0.439479 mm^2
            Peak Dynamic = 0.926622 W
            Subthreshold Leakage = 0.851296 W
            Gate Leakage = 0.0344197 W
            Runtime Dynamic = 0.0557244 W

          Floating Point Units (FPUs) (Count: 6 ):
            Area = 7.06712 mm^2
            Peak Dynamic = 2.12662 W
            Subthreshold Leakage = 3.42235 W
            Gate Leakage = 0.138373 W
            Runtime Dynamic = 0.166873 W

          Complex ALUs (Mul/Div) (Count: 3 ):
            Area = 0.494414 mm^2
            Peak Dynamic = 0.229349 W
            Subthreshold Leakage = 0.957708 W
            Gate Leakage = 0.0387221 W
            Runtime Dynamic = 0.11125 W

          Results Broadcast Bus:
            Area Overhead = 0.0363775 mm^2
            Peak Dynamic = 2.23617 W
            Subthreshold Leakage = 0.257769 W
            Gate Leakage = 0.0104221 W
            Runtime Dynamic = 0.000210759 W

*****************************************************************************************
L2
      Area = 8.27164 mm^2
      Peak Dynamic = 0.112651 W
      Subthreshold Leakage = 5.291 W
      Gate Leakage = 0.138421 W
      Runtime Dynamic = 0.0184682 W

*****************************************************************************************
First Level Directory
      Area = 0.230936 mm^2
      Peak Dynamic = 0.0100361 W
      Subthreshold Leakage = 0.160847 W
      Gate Leakage = 0.00488567 W
      Runtime Dynamic = 4.12059e-12 W

*****************************************************************************************
Memory Controller:
      Area = 0.271054 mm^2
      Peak Dynamic = 0.299952 W
      Subthreshold Leakage = 0.0388043 W
      Gate Leakage = 0.00183315 W
      Runtime Dynamic = 0.0300212 W

      Front End Engine:
        Area = 0.234699 mm^2
        Peak Dynamic = 0.18131 W
        Subthreshold Leakage = 0.0348135 W
        Gate Leakage = 0.00138987 W
        Runtime Dynamic = 0.0181388 W

      Transaction Engine:
        Area = 0.036355 mm^2
        Peak Dynamic = 0.118642 W
        Subthreshold Leakage = 0.00399073 W
        Gate Leakage = 0.000443275 W
        Runtime Dynamic = 0.0118824 W

*****************************************************************************************
BUSES
      Area = 0.0390058 mm^2
      Peak Dynamic = 0.114965 W
      Subthreshold Leakage = 0.0225189 W
      Gate Leakage = 0.000910488 W
      Runtime Dynamic = 0 W

      Bus: 
        Area = 0.0390058 mm^2
        Peak Dynamic = 0.114965 W
        Subthreshold Leakage = 0.0225189 W
        Gate Leakage = 0.000910488 W
        Runtime Dynamic = 0 W

*****************************************************************************************
